* Merge Libraries by KSKelvin
* filename: standard (from ltwiki).dio
* filename: standard (from VolVal).dio
* filename: standard (from LTspice).dio
*
.model 10bq015-ltwiki d is=1.66692e-05 rs=0.0549971 n=1.0339 eg=0.6 xti=0.5 bv=15 ibv=0.001 cjo=4.70891e-10 vj=1.5 m=0.699718 fc=0.5 tt=0
.model 10bq040-ltwiki d is=2.13126e-05 rs=0.123203 n=1.53952 eg=0.600841 xti=3.78803 bv=40 ibv=0.0001 cjo=1.53747e-10 vj=1.5 m=0.476132 fc=0.5 tt=0
.model 10bq100-ltwiki d is=3.8291n rs=100 n=2 eg=0.600259 xti=0.5 bv=100 ibv=0.0001 cjo=9.19104e-11 vj=1.5 m=0.527626 fc=0.5 tt=1n
.model 10ctq150-ltwiki d is=1.63362u rs=0.0221615 n=2 eg=0.6 xti=0.5 bv=150 ibv=5e-05 cjo=4.60092e-10 vj=0.759589 m=0.500823 fc=0.5 tt=1n
.model 10mq060n-ltspice d is=.1u rs=.14 cjo=102p n=1 m=.3 eg=.69 xti=2 iave=1.5 vpk=60 mfg=international_rectifier type=schottky
.model 10mq060n-ltwiki d is=.1u rs=.14 cjo=102p n=1 m=.3 eg=.69 xti=2 iave=1.5 vpk=60 mfg=international_rectifier type=schottky
.model 10mq060n-volval d is=.1u rs=.14 cjo=102p n=1 m=.3 eg=.69 xti=2 iave=1.5 vpk=60 mfg=international_rectifier type=schottky
.model 10mq100n-ltwiki d is=1e-07 rs=0.0807081 n=1.65612 eg=0.6 xti=0.5 bv=100 ibv=0.00025 cjo=8.62759e-11 vj=0.4 m=0.43322 fc=0.5 tt=1n
.model 10tq045-ltwiki d is=9.81804e-08 rs=0.00739225 n=0.993075 eg=0.6 xti=0.5 bv=45 ibv=0.0001 cjo=1.42434n vj=1.5 m=0.479175 fc=0.5 tt=0
.model 120lq045-ltwiki d is=5.90313n rs=0.00455345 n=0.737625 eg=1.3 xti=0.5 bv=45 ibv=0.0001 cjo=1.29866e-08 vj=0.462963 m=0.473356 fc=0.5 tt=1n
.model 120lq100-ltwiki d is=0.000544678 rs=0.00277937 n=1.83305 eg=0.6 xti=0.5 bv=100 ibv=0.0001 cjo=6.48813n vj=0.4 m=0.384061 fc=0.5 tt=1n
.model 12cgq150-ltwiki d is=2.4863e-05 rs=0.0252929 n=2 eg=1.3 xti=0.5 bv=150 ibv=0.0001 cjo=6.35956e-10 vj=1.5 m=0.562241 fc=0.5 tt=0
.model 12ctq045-ltwiki d is=5.30534n rs=0.014271 n=0.891364 eg=0.6 xti=0.5 bv=45 ibv=0.0001 cjo=7.11199e-10 vj=1.5 m=0.484798 fc=0.5 tt=0
.model 12cwq04fn-ltwiki d is=1.05439u rs=0.0173547 n=1.07052 eg=0.6 xti=0.5 bv=40 ibv=0.0001 cjo=1.51803n vj=0.4 m=0.516518 fc=0.5 tt=1n
.model 12tq045-ltwiki d is=1.61329p rs=0.01 n=0.5 eg=0.600004 xti=0.5 bv=45 ibv=0.0001 cjo=1.59319n vj=1.5 m=0.52241 fc=0.5 tt=0
.model 15cgq100-ltwiki d is=8.74079e-05 rs=0.0180811 n=2 eg=1.3 xti=3.01057 bv=100 ibv=0.0001 cjo=1.08792n vj=0.846153 m=0.498115 fc=0.5 tt=0
.model 15clq100-ltwiki d is=6.44968e-05 rs=0.014091 n=2 eg=0.996757 xti=0.5 bv=100 ibv=0.005 cjo=1.38463n vj=0.4 m=0.466344 fc=0.5 tt=0
.model 15eth06-ltwiki d is=2.2756e-08 rs=0.0177161 n=2 eg=0.6 xti=0.500021 bv=600 ibv=0.0001 cjo=1.6387e-10 vj=0.71953 m=0.37991 fc=0.5 tt=1n
.model 15eth06-volval d is=2.2756e-08 rs=0.0177161 n=2 eg=0.6 xti=0.500021 bv=600 ibv=0.0001 cjo=1.6387e-10 vj=0.71953 m=0.37991 fc=0.5 tt=1n
.model 15ljq100-ltwiki d is=6.15446e-05 rs=0.0153982 n=1.88088 eg=1.3 xti=3.60437 bv=100 ibv=0.0001 cjo=1.08848n vj=0.4 m=0.371667 fc=0.5 tt=1n
.model 160cmq045-ltwiki d is=1.34755e-11 rs=0.00275782 n=0.5 eg=0.6 xti=0.5 bv=1000 ibv=0.0001 cjo=4.75072n vj=1.5 m=0.542103 fc=0.5 tt=1n
.model 16cyq150c-ltwiki d is=1.71508e-05 rs=0.0265393 n=2 eg=1.3 xti=2.78486 bv=150 ibv=0.0001 cjo=9.98822e-10 vj=0.4 m=0.484035 fc=0.5 tt=1n
.model 16syq060c-ltwiki d is=1.66638e-08 rs=0.0183025 n=0.65508 eg=0.6 xti=0.5 bv=60 ibv=0.0001 cjo=6.83071n vj=0.4 m=0.497741 fc=0.5 tt=1n
.model 16yq045c-ltwiki d is=4.98611e-07 rs=0.0130029 n=0.98534 eg=1.3 xti=2.9591 bv=45 ibv=0.0001 cjo=6.92544n vj=0.537519 m=0.490188 fc=0.5 tt=1n
.model 16yq150c-ltwiki d is=2.63267e-05 rs=0.0169253 n=2 eg=1.3 xti=2.95537 bv=150 ibv=0.0001 cjo=1.74923n vj=0.4 m=0.470085 fc=0.5 tt=1n
.model 18tq045-ltwiki d is=1.97424e-13 rs=0.00628392 n=0.530234 eg=0.6 xti=0.05 bv=45 ibv=0.0001 cjo=8.24939n vj=1.5 m=0.462568 fc=0.5 tt=0
.model 1n1200c-ltwiki d is=9.94u rs=0.00623 cjo=4.528e-10 vj=0.5189 tt=7.237e-07 m=0.4269 bv=100 n=2 eg=1.11 xti=3 fc=0.5 ibv=0.0001 vpk=100v mfg=motorola type=silicon
.model 1n1206a-ltwiki d is=17.1n rs=3.5m n=1.7 bv=600 ibv=397u cjo=495p vj=0.75 m=0.333 tt=4.32u vpk=600v iave=12 mfg=irf type=silicon
.model 1n1206c-ltwiki d is=9.94u rs=0.00653 cjo=4.528e-10 vj=0.5189 tt=7.237e-07 m=0.4269 bv=100 n=2 eg=1.11 xti=3 fc=0.5 ibv=0.0001
.model 1n34a-ltwiki d is=2.6u rs=6.5 n=1.6 cjo=0.8p eg=0.67 bv=25 ibv=0.003 type=gepunctualcontact
.model 1n34a-volval d is=2.6u rs=6.5 n=1.6 cjo=0.8p eg=0.67 bv=25 ibv=0.003 type=gepunctualcontact
.model 1n4001-ltwiki d is=14.11n n=1.984 rs=33.89m ikf=94.81 xti=3 eg=1.11 cjo=25.89p m=.44 vj=.3245 fc=.5 bv=75 ibv=10u tt=5.7u iave=1 vpk=50 mfg=gi type=silicon
.model 1n4001-volval d is=14.11n n=1.984 rs=33.89m ikf=94.81 xti=3 eg=1.11 cjo=25.89p m=.44 vj=.3245 fc=.5 bv=75 ibv=10u tt=5.7u iave=1 vpk=50 mfg=gi type=silicon
.model 1n4002-ltwiki d is=14.11n n=1.984 rs=33.89m ikf=94.81 xti=3 eg=1.110 cjo=51.17p m=.2762 vj=.3905 fc=.5 isr=100.0p nr=2 bv=100.1 ibv=10 tt=4.761u iave=1 vpk=100 mfg=gi type=silicon
.model 1n4002-volval d is=14.11n n=1.984 rs=33.89m ikf=94.81 xti=3 eg=1.110 cjo=51.17p m=.2762 vj=.3905 fc=.5 isr=100.0p nr=2 bv=100.1 ibv=10 tt=4.761u iave=1 vpk=100 mfg=gi type=silicon
.model 1n4007-ltspice d is=90p rs=40m cjo=30p n=1.4 tt=5u iave=1 vpk=1000 mfg=diodes_inc. type=silicon
.model 1n4007-ltwiki d is=7.02767n rs=0.0341512 n=1.80803 eg=1.05743 xti=5 bv=1000 ibv=5e-08 cjo=1e-11 vj=0.7 m=0.5 fc=0.5 tt=1e-07 mfg=onsemi type=silicon
.model 1n4007-volval d is=7.02767n rs=0.0341512 n=1.80803 eg=1.05743 xti=5 bv=1000 ibv=5e-08 cjo=1e-11 vj=0.7 m=0.5 fc=0.5 tt=1e-07 mfg=onsemi type=silicon
.model 1n4106-ltwiki d bv=12 cjo=107.101p ibv=50u is=5.72393f m=501.929m rs=100 vj=750m
.model 1n4148-ltspice d is=2.52n rs=.568 n=1.752 cjo=4p m=.4 tt=20n iave=200m vpk=75 mfg=onsemi type=silicon
.model 1n4148-ltwiki d is=2.52n rs=.568 n=1.752 cjo=4p m=.4 tt=20n iave=200m vpk=75 mfg=onsemi type=silicon
.model 1n4148-volval d is=2.52n rs=.568 n=1.752 cjo=4p m=.4 tt=20n iave=200m vpk=75 mfg=onsemi type=silicon
.model 1n4448hwt-ltwiki d is=137f rs=0.168 bv=80 ibv=100n cjo=3.56p m=0.333 n=1.11 tt=5.76n vpk=80v iave=0.25 tt=4ns mfg=diodesinc type=silicon
.model 1n4448hwt-volval d is=137f rs=0.168 bv=80 ibv=100n cjo=3.56p m=0.333 n=1.11 tt=5.76n vpk=80v iave=0.25 tt=4ns mfg=diodesinc type=silicon
.model 1n4467-ltwiki d is=84.5f n=1 rs=.1 ikf=0 xti=3 eg=1.11 cjo=930p m=.3333 vj=.75 fc=.5 isr=83.39n nr=2 bv=12.05 ibv=.1785 tt=144.3n type=zener
.model 1n4467-volval d is=84.5f n=1 rs=.1 ikf=0 xti=3 eg=1.11 cjo=930p m=.3333 vj=.75 fc=.5 isr=83.39n nr=2 bv=12.05 ibv=.1785 tt=144.3n type=zener
.model 1n5355b-ltwiki d is=9.15e-16 rs=2.1 tt=5.01e-8 cjo=2.79e-10 m=0.33 bv=17.87 ibv=0.065 vpk=18v mfg=diodesinc type=zener
.model 1n5355b-volval d is=9.15e-16 rs=2.1 tt=5.01e-8 cjo=2.79e-10 m=0.33 bv=17.87 ibv=0.065 vpk=18v mfg=diodesinc type=zener
.model 1n5369b-ltspice d is=1.54e-17 n=1 xti=1 rs=.1 cjo=10p tt=10n bv=51 ibv=25m nbv=35 vpk=51 mfg=onsemi type=zener
.model 1n5369b-ltwiki d is=1.54e-17 n=1 xti=1 rs=.1 cjo=10p tt=10n bv=51 ibv=25m nbv=35 vpk=51 mfg=onsemi type=zener
.model 1n5369b-volval d is=1.54e-17 n=1 xti=1 rs=.1 cjo=10p tt=10n bv=51 ibv=25m nbv=35 vpk=51 mfg=onsemi type=zener
.model 1n5371b-ltspice d is=1.54e-17 n=1 xti=1 rs=.1 cjo=10p tt=10n bv=60 ibv=20m nbv=30 vpk=60 mfg=onsemi type=zener
.model 1n5371b-ltwiki d is=1.54e-17 n=1 xti=1 rs=.1 cjo=10p tt=10n bv=60 ibv=20m nbv=30 vpk=60 mfg=onsemi type=zener
.model 1n5371b-volval d is=1.54e-17 n=1 xti=1 rs=.1 cjo=10p tt=10n bv=60 ibv=20m nbv=30 vpk=60 mfg=onsemi type=zener
.model 1n5373b-ltspice d is=1.54e-17 n=1 xti=1 rs=.1 cjo=10p tt=10n bv=68 ibv=20m nbv=50 vpk=68 mfg=onsemi type=zener
.model 1n5373b-ltwiki d is=1.54e-17 n=1 xti=1 rs=.1 cjo=10p tt=10n bv=68 ibv=20m nbv=50 vpk=68 mfg=onsemi type=zener
.model 1n5373b-volval d is=1.54e-17 n=1 xti=1 rs=.1 cjo=10p tt=10n bv=68 ibv=20m nbv=50 vpk=68 mfg=onsemi type=zener
.model 1n5375b-ltspice d is=1.54e-17 n=1 xti=1 rs=.1 cjo=10p tt=10n bv=82 ibv=15m nbv=35 vpk=82 mfg=onsemi type=zener
.model 1n5375b-ltwiki d is=1.54e-17 n=1 xti=1 rs=.1 cjo=10p tt=10n bv=82 ibv=15m nbv=35 vpk=82 mfg=onsemi type=zener
.model 1n5375b-volval d is=1.54e-17 n=1 xti=1 rs=.1 cjo=10p tt=10n bv=82 ibv=15m nbv=35 vpk=82 mfg=onsemi type=zener
.model 1n5378b-ltspice d is=1.54e-17 n=1 xti=1 rs=.1 cjo=10p tt=10n bv=100 ibv=12m nbv=48 vpk=100 mfg=onsemi type=zener
.model 1n5378b-ltwiki d is=1.54e-17 n=1 xti=1 rs=.1 cjo=10p tt=10n bv=100 ibv=12m nbv=48 vpk=100 mfg=onsemi type=zener
.model 1n5378b-volval d is=1.54e-17 n=1 xti=1 rs=.1 cjo=10p tt=10n bv=100 ibv=12m nbv=48 vpk=100 mfg=onsemi type=zener
.model 1n5711-ltwiki d is=19.7n n=1.51 bv=93.3 ibv=50n rs=6.27 cjo=1.8p vj=.75 m=.333 xti=2 eg=.69 tt=10.8p type=schottky
.model 1n5806-ltwiki d is=23.3n rs=33.7m n=1.67 bv=150 ibv=1u cjo=66.3p vj=.75 m=.333 tt=43.2n iave=5 vpk=150 type=silicon
.model 1n5806us-ltwiki d is=13.14n n=1.607 rs=28.6m ikf=.336 xti=3 eg=1.11 cjo=60.7p isr=168.5n bv=160 ibv=100u tt=36.1n vpk=150 iave=5 mfg=microsemi
.model 1n5817-ltspice d is=31.7u rs=.051 n=1.373 cjo=190p m=.3 eg=.69 xti=2 iave=1 vpk=20 mfg=onsemi type=schottky
.model 1n5817-ltwiki d is=31.7u rs=.051 n=1.373 cjo=190p m=.3 eg=.69 xti=2 iave=1 vpk=20 mfg=onsemi type=schottky
.model 1n5817-volval d is=31.7u rs=.051 n=1.373 cjo=190p m=.3 eg=.69 xti=2 iave=1 vpk=20 mfg=onsemi type=schottky
.model 1n5818-ltspice d is=31.7u rs=.051 n=1.373 cjo=160p m=.38 eg=.69 xti=2 iave=1 vpk=30 mfg=onsemi type=schottky
.model 1n5818-ltwiki d is=31.7u rs=.051 n=1.373 cjo=160p m=.38 eg=.69 xti=2 iave=1 vpk=30 mfg=onsemi type=schottky
.model 1n5818-volval d is=31.7u rs=.051 n=1.373 cjo=160p m=.38 eg=.69 xti=2 iave=1 vpk=30 mfg=onsemi type=schottky
.model 1n5819-ltspice d is=31.7u rs=.051 n=1.373 cjo=110p m=.35 eg=.69 xti=2 iave=1 vpk=40 mfg=onsemi type=schottky
.model 1n5819-ltwiki d is=31.7u rs=.051 n=1.373 cjo=110p m=.35 eg=.69 xti=2 iave=1 vpk=40 mfg=onsemi type=schottky
.model 1n5819-volval d is=31.7u rs=.051 n=1.373 cjo=110p m=.35 eg=.69 xti=2 iave=1 vpk=40 mfg=onsemi type=schottky
.model 1n5822-ltwiki d is=2.5069u n=1.0281 rs=11.15m ikf=403 cjo=980p m=.47978 vj=.3905 isr=5.226u nr=4.995 eg=.69 xti=2 tt=0 fc=0.5 bv=40 ibv=100u iave=3 vpk=40 mfg=st type=schottky
.model 1n6513-ltwiki d is=0.0000005 n=7.2 rs=0.14 tt=70n cj0=56.64p vj=1.67 m=0.5 eg=1.11 xti=3 fc=0.5 bv=2200 ibv=100u iave=2 vpk=2000 mfg=vmi type=silicon
.model 1n6513-volval d is=0.0000005 n=7.2 rs=0.14 tt=70n cj0=56.64p vj=1.67 m=0.5 eg=1.11 xti=3 fc=0.5 bv=2200 ibv=100u iave=2 vpk=2000 mfg=vmi type=silicon
.model 1n6515-ltwiki d is=0.5u n=13.5 rs=0.18 tt=70n cj0=35.24p vj=3.29 m=0.5 eg=1.11 xti=3 fc=0.5 bv=3600 ibv=100u iave=1.5 vpk=3000 mfg=vmi type=silicon
.model 1n6515-volval d is=0.5u n=13.5 rs=0.18 tt=70n cj0=35.24p vj=3.29 m=0.5 eg=1.11 xti=3 fc=0.5 bv=3600 ibv=100u iave=1.5 vpk=3000 mfg=vmi type=silicon
.model 1n6517-ltwiki d is=0.5u n=19.2 rs=0.36 tt=70n cj0=22.76p vj=6.41 m=0.5 eg=1.11 xti=3 fc=0.5 bv=6000 ibv=100u iave=1 vpk=5000 mfg=vmi type=silicon
.model 1n6517-volval d is=0.5u n=19.2 rs=0.36 tt=70n cj0=22.76p vj=6.41 m=0.5 eg=1.11 xti=3 fc=0.5 bv=6000 ibv=100u iave=1 vpk=5000 mfg=vmi type=silicon
.model 1n6519-ltwiki d is=0.5u n=37 rs=0.75 tt=70n cj0=8.87p vj=14.03 m=0.5 eg=1.11 xti=3 fc=0.5 bv=12000 ibv=100u iave=0.5 vpk=10000 mfg=vmi type=silicon
.model 1n6519-volval d is=0.5u n=37 rs=0.75 tt=70n cj0=8.87p vj=14.03 m=0.5 eg=1.11 xti=3 fc=0.5 bv=12000 ibv=100u iave=0.5 vpk=10000 mfg=vmi type=silicon
.model 1n6521-ltwiki d is=0.25u n=6.8 rs=29 tt=70n cj0=11.94p vj=1.57 m=0.5 eg=1.11 xti=3 fc=0.5 bv=2200 ibv=100u iave=0.6 vpk=2000 mfg=vmi type=silicon
.model 1n6521-volval d is=0.25u n=6.8 rs=29 tt=70n cj0=11.94p vj=1.57 m=0.5 eg=1.11 xti=3 fc=0.5 bv=2200 ibv=100u iave=0.6 vpk=2000 mfg=vmi type=silicon
.model 1n6523-ltwiki d is=0.25u n=16 rs=0.48 tt=70n cj0=4.77p vj=3.81 m=0.5 eg=1.11 xti=3 fc=0.5 bv=3600 ibv=100u iave=0.25 vpk=3000 mfg=vmi type=silicon
.model 1n6523-volval d is=0.25u n=16 rs=0.48 tt=70n cj0=4.77p vj=3.81 m=0.5 eg=1.11 xti=3 fc=0.5 bv=3600 ibv=100u iave=0.25 vpk=3000 mfg=vmi type=silicon
.model 1n6525-ltwiki d is=0.25u n=20.4 rs=0.9 tt=70n cj0=3.1p vj=6.73 m=0.5 eg=1.11 xti=3 fc=0.5 bv=6000 ibv=100u iave=0.15 vpk=5000 mfg=vmi type=silicon
.model 1n6525-volval d is=0.25u n=20.4 rs=0.9 tt=70n cj0=3.1p vj=6.73 m=0.5 eg=1.11 xti=3 fc=0.5 bv=6000 ibv=100u iave=0.15 vpk=5000 mfg=vmi type=silicon
.model 1n6527-ltwiki d is=0.25u n=38.4 rs=1.8 tt=70n cj0=1.45p vj=17.06 m=0.5 eg=1.11 xti=3 fc=0.5 bv=12000 ibv=100u iave=0.15 vpk=10000 mfg=vmi type=silicon
.model 1n6527-volval d is=0.25u n=38.4 rs=1.8 tt=70n cj0=1.45p vj=17.06 m=0.5 eg=1.11 xti=3 fc=0.5 bv=12000 ibv=100u iave=0.15 vpk=10000 mfg=vmi type=silicon
.model 1n6529-ltwiki d is=0.1u n=8.4 rs=0.8 tt=70n cj0=4.77p vj=1.23 m=0.5 eg=1.11 xti=3 fc=0.5 bv=2200 ibv=100u iave=0.25 vpk=2000 mfg=vmi type=silicon
.model 1n6529-volval d is=0.1u n=8.4 rs=0.8 tt=70n cj0=4.77p vj=1.23 m=0.5 eg=1.11 xti=3 fc=0.5 bv=2200 ibv=100u iave=0.25 vpk=2000 mfg=vmi type=silicon
.model 1n6531-ltwiki d is=0.1u n=16.3 rs=1 tt=70n cj0=1.92p vj=6.21 m=0.5 eg=1.11 xti=3 fc=0.5 bv=3600 ibv=100u iave=0.15 vpk=3000 mfg=vmi type=silicon
.model 1n6531-volval d is=0.1u n=16.3 rs=1 tt=70n cj0=1.92p vj=6.21 m=0.5 eg=1.11 xti=3 fc=0.5 bv=3600 ibv=100u iave=0.15 vpk=3000 mfg=vmi type=silicon
.model 1n6533-ltwiki d is=0.1u n=22.8 rs=3.8 tt=70n cj0=1.44p vj=7.17 m=0.5 eg=1.11 xti=3 fc=0.5 bv=6000 ibv=100u iave=0.05 vpk=5000 mfg=vmi type=silicon
.model 1n6533-volval d is=0.1u n=22.8 rs=3.8 tt=70n cj0=1.44p vj=7.17 m=0.5 eg=1.11 xti=3 fc=0.5 bv=6000 ibv=100u iave=0.05 vpk=5000 mfg=vmi type=silicon
.model 1n6535-ltwiki d is=0.1u n=54 rs=14 tt=70n cj0=0.68p vj=16.15 m=0.5 eg=1.11 xti=3 fc=0.5 bv=12000 ibv=100u iave=0.025 vpk=10000 mfg=vmi type=silicon
.model 1n6535-volval d is=0.1u n=54 rs=14 tt=70n cj0=0.68p vj=16.15 m=0.5 eg=1.11 xti=3 fc=0.5 bv=12000 ibv=100u iave=0.025 vpk=10000 mfg=vmi type=silicon
.model 1n6823-ltwiki d is=4.258u n=1.265 rs=1.038m ikf=3.295 xti=2 eg=.69 cjo=11.7n m=.564 isr=362n nr=2 bv=120 ibv=5m iave=150 vpk=100 mfg=microsemi type=schottky
.model 1n6823-volval d is=4.258u n=1.265 rs=1.038m ikf=3.295 xti=2 eg=.69 cjo=11.7n m=.564 isr=362n nr=2 bv=120 ibv=5m iave=150 vpk=100 mfg=microsemi type=schottky
.model 1n746-ltwiki d is=31.47f rs=9.494 ikf=0 n=1 xti=3 eg=1.11 cjo=220p m=.5959 vj=.75 fc=.5 isr=2.035n nr=2 bv=3.3 ibv=45.862m nbv=3.0477 ibvl=29.831m nbvl=11.606 tbv1=-636.4u vpk=3.3 mfg=motorola type=zener
.model 1n746-volval d is=31.47f rs=9.494 ikf=0 n=1 xti=3 eg=1.11 cjo=220p m=.5959 vj=.75 fc=.5 isr=2.035n nr=2 bv=3.3 ibv=45.862m nbv=3.0477 ibvl=29.831m nbvl=11.606 tbv1=-636.4u vpk=3.3 mfg=motorola type=zener
.model 1n747-ltwiki d is=1.242f rs=1.137 ikf=0 n=1 xti=3 eg=1.11 cjo=210p m=.6063 vj=.75 fc=.5 isr=1.922n nr=2 bv=3.6 ibv=13.987m nbv=3.031 ibvl=10.212m nbvl=12.73 tbv1=-555.6u vpk=3.6 mfg=motorola type=zener
.model 1n747-volval d is=1.242f rs=1.137 ikf=0 n=1 xti=3 eg=1.11 cjo=210p m=.6063 vj=.75 fc=.5 isr=1.922n nr=2 bv=3.6 ibv=13.987m nbv=3.031 ibvl=10.212m nbvl=12.73 tbv1=-555.6u vpk=3.6 mfg=motorola type=zener
.model 1n748-ltwiki d is=1.252f rs=1.156 ikf=0 n=1 xti=3 eg=1.11 cjo=205p m=.6004 vj=.75 fc=.5 isr=1.867n nr=2 bv=3.9 ibv=17.244m nbv=2.4016 ibvl=8.619m nbvl=13.283 tbv1=-384.62u vpk=3.9 mfg=motorola type=zener
.model 1n748-volval d is=1.252f rs=1.156 ikf=0 n=1 xti=3 eg=1.11 cjo=205p m=.6004 vj=.75 fc=.5 isr=1.867n nr=2 bv=3.9 ibv=17.244m nbv=2.4016 ibvl=8.619m nbvl=13.283 tbv1=-384.62u vpk=3.9 mfg=motorola type=zener
.model 1n749-ltwiki d is=880.5e-18 rs=.25 ikf=0 n=1 xti=3 eg=1.11 cjo=190p m=.6124 vj=.75 fc=.5 isr=1.743n nr=2 bv=4.3 ibv=16.748m nbv=1.7936 ibvl=5.0382m nbvl=12.554 tbv1=-232.56u vpk=4.3 mfg=motorola type=zener
.model 1n749-volval d is=880.5e-18 rs=.25 ikf=0 n=1 xti=3 eg=1.11 cjo=190p m=.6124 vj=.75 fc=.5 isr=1.743n nr=2 bv=4.3 ibv=16.748m nbv=1.7936 ibvl=5.0382m nbvl=12.554 tbv1=-232.56u vpk=4.3 mfg=motorola type=zener
.model 1n750-ltspice d is=.88f rs=.25 cjo=175p m=.55 nbv=1.7 bv=4.7 vj=.75 isr=1.86n nr=2 ibv=20.245m ibvl=1.96m nbvl=15 tbv1=-21.3u vpk=4.7 mfg=onsemi type=zener
.model 1n750-ltwiki d is=.88f rs=.25 cjo=175p m=.55 nbv=1.7 bv=4.7 vj=.75 isr=1.86n nr=2 ibv=20.245m ibvl=1.96m nbvl=15 tbv1=-21.3u vpk=4.7 mfg=onsemi type=zener
.model 1n750-volval d is=.88f rs=.25 cjo=175p m=.55 nbv=1.7 bv=4.7 vj=.75 isr=1.86n nr=2 ibv=20.245m ibvl=1.96m nbvl=15 tbv1=-21.3u vpk=4.7 mfg=onsemi type=zener
.model 1n751-ltwiki d is=1.004f rs=.5875 ikf=0 n=1 xti=3 eg=1.11 cjo=160p m=.5484 vj=.75 fc=.5 isr=1.8n nr=2 bv=5.1 ibv=27.721m nbv=1.1779 ibvl=1.1646m nbvl=21.894 tbv1=176.47u vpk=5.1 mfg=motorola type=zener
.model 1n751-volval d is=1.004f rs=.5875 ikf=0 n=1 xti=3 eg=1.11 cjo=160p m=.5484 vj=.75 fc=.5 isr=1.8n nr=2 bv=5.1 ibv=27.721m nbv=1.1779 ibvl=1.1646m nbvl=21.894 tbv1=176.47u vpk=5.1 mfg=motorola type=zener
.model 1n752-ltwiki d is=1.154f rs=.9471 ikf=0 n=1 xti=3 eg=1.11 cjo=150p m=.5788 vj=.75 fc=.5 isr=1.625n nr=2 bv=5.6 ibv=62.583m nbv=.62382 ibvl=631.96u nbvl=50 tbv1=267.86u vpk=5.6 mfg=motorola type=zener
.model 1n752-volval d is=1.154f rs=.9471 ikf=0 n=1 xti=3 eg=1.11 cjo=150p m=.5788 vj=.75 fc=.5 isr=1.625n nr=2 bv=5.6 ibv=62.583m nbv=.62382 ibvl=631.96u nbvl=50 tbv1=267.86u vpk=5.6 mfg=motorola type=zener
.model 1n754-ltwiki d is=1.616f rs=1.818 ikf=0 n=1 xti=3 eg=1.11 cjo=120p m=.5117 vj=.75 fc=.5 isr=1.698n nr=2 bv=6.8 ibv=2.8814 nbv=.28248 ibvl=1.9426u nbvl=.27168 tbv1=485.29u vpk=6.8 mfg=motorola type=zener
.model 1n754-volval d is=1.616f rs=1.818 ikf=0 n=1 xti=3 eg=1.11 cjo=120p m=.5117 vj=.75 fc=.5 isr=1.698n nr=2 bv=6.8 ibv=2.8814 nbv=.28248 ibvl=1.9426u nbvl=.27168 tbv1=485.29u vpk=6.8 mfg=motorola type=zener
.model 1n755-ltwiki d is=2.077f rs=2.467 ikf=0 n=1 xti=3 eg=1.11 cjo=104p m=.5061 vj=.75 fc=.5 isr=1.645n nr=2 bv=7.5 ibv=2.5701 nbv=.39227 ibvl=4.0222e-5 nbvl=.25042 tbv1=533.33u vpk=7.5 mfg=motorola type=zener
.model 1n755-volval d is=2.077f rs=2.467 ikf=0 n=1 xti=3 eg=1.11 cjo=104p m=.5061 vj=.75 fc=.5 isr=1.645n nr=2 bv=7.5 ibv=2.5701 nbv=.39227 ibvl=4.0222e-5 nbvl=.25042 tbv1=533.33u vpk=7.5 mfg=motorola type=zener
.model 1n757-ltwiki d is=2.453f rs=2.9 ikf=0 n=1 xti=3 eg=1.11 cjo=78p m=.4399 vj=.75 fc=.5 isr=1.762n nr=2 bv=9.1 ibv=.48516 nbv=.7022 ibvl=1m nbvl=.13785 tbv1=604.396u vpk=9.1 mfg=motorola type=zener
.model 1n757-volval d is=2.453f rs=2.9 ikf=0 n=1 xti=3 eg=1.11 cjo=78p m=.4399 vj=.75 fc=.5 isr=1.762n nr=2 bv=9.1 ibv=.48516 nbv=.7022 ibvl=1m nbvl=.13785 tbv1=604.396u vpk=9.1 mfg=motorola type=zener
.model 1n914-ltspice d is=2.52n rs=.568 n=1.752 cjo=4p m=.4 tt=20n iave=200m vpk=75 mfg=onsemi type=silicon
.model 1n914-ltwiki d is=2.52n rs=.568 n=1.752 cjo=4p m=.4 tt=20n iave=200m vpk=75 mfg=onsemi type=silicon
.model 1n914-volval d is=2.52n rs=.568 n=1.752 cjo=4p m=.4 tt=20n iave=200m vpk=75 mfg=onsemi type=silicon
.model 1ss226-ltwiki d is=5.157n n=1.903 rs=.7407 ikf=0 xti=3 eg=1.11 cjo=879.9f m=.1335 vj=11.85 fc=.5 isr=3.476n nr=1.945 bv=85 ibv=100u tt=2.308n iave=100m vpk=80 mfg=toshiba type=silicon
.model 1ss355vm-ltspice d is=0.3971n n=1.7916 rs=1.2943 ikf=9.0759m cjo=659.70f m=0.1145 vj=2.3974 isr=6.1486n nr=1.91 bv=90 tt=4.5591n iave=0.1 vpk=90 mfg=rohm type=silicon
.model 1ss380vm-ltspice d is=1.2165p n=1.3497 rs=.13668 ikf=12.432m cjo=2.2716p m=.31833 vj=.50219 isr=4.2907p nr=4.6 bv=80 tt=3.6810u iave=0.1 vpk=80 mfg=rohm type=silicon
.model 1ss390sm-ltspice d is=12.658f n=1.1755 rs=102.16m ikf=33.250m eg=1.130 cjo=2.0600p m=0.3054 vj=0.5000 isr=967.35f nr=3.9715 bv=35 tt=152.95n iave=0.1 vpk=35 mfg=rohm type=silicon
.model 1ss400sm-ltspice d is=1.7962n n=1.7555 rs=.55113 ikf=72.153m cjo=1.3304p m=.11174 vj=4.1020 isr=3.2239n nr=4.0000 bv=90 tt=11.542n iave=0.1 vpk=90 mfg=rohm type=silicon
.model 200td120u-ltwiki d is=1.4976e-11 rs=0.007312 n=2 eg=0.6 xti=4 bv=1200 ibv=0.0001 cjo=1.8n vj=0.4 m=0.45418 fc=0.5 tt=1n
.model 20cjq030-ltwiki d is=7.45927n rs=0.0632601 n=0.89875 eg=1.3 xti=4 bv=30 ibv=0.0001 cjo=2.9346e-10 vj=0.4 m=0.427299 fc=0.5 tt=0
.model 20clq045-ltwiki d is=5.55194e-10 rs=0.01 n=0.736126 eg=0.6 xti=0.5 bv=45 ibv=0.005 cjo=2.42073n vj=0.470122 m=0.477502 fc=0.5 tt=0
.model 20ets12-ltwiki d is=8.28224n rs=0.00791517 n=1.61051 eg=1.12793 xti=0.5 bv=1000 ibv=0.0001 cjo=1e-11 vj=0.7 m=0.5 fc=0.5 tt=1n
.model 20ets12a+3s-ltwiki d is=2.797e-10 rs=0.0113232 n=1.38813 eg=1.07556 xti=4 bv=1200 ibv=0.0001 cjo=1e-11 vj=0.7 m=0.5 fc=0.5 tt=1n
.model 20ets12avg-ltwiki d is=3.14987e-10 rs=0.01 n=1.37516 eg=1.06967 xti=4 bv=1200 ibv=0.0001 cjo=1e-11 vj=0.7 m=0.5 fc=0.5 tt=1n
.model 22gq100-ltwiki d is=5.91885e-14 rs=0.0197462 n=0.527335 eg=0.6 xti=0.5 bv=100 ibv=0.0001 cjo=4.67713n vj=0.4 m=0.513011 fc=0.5 tt=0
.model 30bq015-ltwiki d is=50u rs=18m n=1.0339 cjo=1400p vj=1.5 m=0.699718 eg=0.6 xti=0.5 fc=0.5 bv=15 ibv=3m iave=3 vpk=15 mfg=international_rectifier type=schottky
.model 30bq015-volval d is=50u rs=18m n=1.0339 cjo=1400p vj=1.5 m=0.699718 eg=0.6 xti=0.5 fc=0.5 bv=15 ibv=3m iave=3 vpk=15 mfg=international_rectifier type=schottky
.model 30bq060-ltspice d is=10u rs=.04 n=1.4 cjo=180p eg=.69 xti=2 iave=3 vpk=60 mfg=international_rectifier type=schottky
.model 30bq060-ltwiki d is=10u rs=.04 n=1.4 cjo=180p eg=.69 xti=2 iave=3 vpk=60 mfg=international_rectifier type=schottky
.model 30bq060-volval d is=10u rs=.04 n=1.4 cjo=180p eg=.69 xti=2 iave=3 vpk=60 mfg=international_rectifier type=schottky
.model 30cljq045-ltwiki d is=6.17168e-07 rs=0.0202821 n=1.08809 eg=1.3 xti=3.29182 bv=45 ibv=0.0001 cjo=1.24067n vj=0.408846 m=0.481835 fc=0.5 tt=0
.model 30cljq150-ltwiki d is=1.30646u rs=0.0239928 n=2 eg=1.3 xti=3.05712 bv=150 ibv=0.0001 cjo=3.73861e-10 vj=0.4 m=0.457852 fc=0.5 tt=0
.model 30cth02-ltwiki d is=1f rs=0.01 n=0.77819 eg=1.3 xti=4 bv=200 ibv=0.0001 cjo=4.06302e-10 vj=0.4 m=0.3385 fc=0.5 tt=1e-07
.model 30ctq060s-ltwiki d is=0.001 rs=0.00753336 n=2.31312 eg=0.510131 xti=0.497683 bv=60 ibv=0.0001 cjo=1.18606n vj=1.5 m=0.494139 fc=0.5 tt=1n
.model 30eph06-ltwiki d is=3.75476e-10 rs=0.0182211 n=2 eg=0.626585 xti=0.500695 bv=600 ibv=0.0001 cjo=3.68339e-10 vj=1.27928 m=0.404368 fc=0.5 tt=1.23518e-08
.model 30ljq045-ltwiki d is=3.01029e-08 rs=0.00758833 n=0.877045 eg=0.6 xti=0.5 bv=45 ibv=0.0001 cjo=2.65012n vj=1.18451 m=0.511241 fc=0.5 tt=0
.model 30ljq100-ltwiki d is=2.8036e-05 rs=0.0100392 n=2 eg=0.6 xti=0.5 bv=100 ibv=0.0001 cjo=1.41531n vj=0.4 m=0.47998 fc=0.5 tt=0
.model 30ljq150-ltwiki d is=4.79361u rs=0.0108545 n=2 eg=1.3 xti=0.502388 bv=150 ibv=0.0001 cjo=9.09704e-10 vj=0.4 m=0.462283 fc=0.5 tt=0
.model 30scljq030-ltwiki d is=3.04923u rs=0.0123656 n=1.0506 eg=1.3 xti=2.9944 bv=30 ibv=0.0001 cjo=1.61571n vj=0.442068 m=0.472758 fc=0.5 tt=0
.model 30sljq030-ltwiki d is=2.08649e-07 rs=0.00676047 n=0.86202 eg=0.6 xti=0.5 bv=30 ibv=0.0001 cjo=5.85622n vj=0.4 m=0.485403 fc=0.5 tt=0
.model 32ctq030-ltwiki d is=2.21746e-11 rs=0.01 n=0.5 eg=0.6 xti=2.38672 bv=30 ibv=0.00175 cjo=2.11811n vj=1.5 m=0.499425 fc=0.5 tt=0
.model 32ctq030h-ltwiki d is=1f rs=0.01 n=0.5 eg=1.07785 xti=4 bv=30 ibv=0.00175 cjo=2.11811n vj=1.5 m=0.499425 fc=0.5 tt=0
.model 35cgq100-ltwiki d is=1f rs=0.01681 n=0.5 eg=0.608064 xti=0.500208 bv=100 ibv=0.0001 cjo=2.00581n vj=1.24629 m=0.513186 fc=0.5 tt=1n
.model 35clq045-ltwiki d is=2.76847e-07 rs=0.00674255 n=1.0155 eg=1.3 xti=4 bv=45 ibv=0.0001 cjo=2.76301n vj=1.01389 m=0.489865 fc=0.5 tt=0
.model 40cpq050-ltwiki d is=2.4532e-11 rs=0.0071 n=0.5 eg=0.6 xti=0.5 bv=1000 ibv=0.0001 cjo=2.49633n vj=1.5 m=0.483473 fc=0.5 tt=1n
.model 40ctq045-ltwiki d is=3.357e-08 rs=0.01 n=0.5 eg=1.04653 xti=0.957426 bv=45 ibv=0.00025 cjo=1.51919e-08 vj=0.4 m=0.704417 fc=0.5 tt=1n
.model 40eps08-ltwiki d is=1f rs=0.00426912 n=0.926332 eg=0.6 xti=0.5 bv=800 ibv=0.0001 cjo=1e-11 vj=0.7 m=0.5 fc=0.5 tt=1n
.model 40eps12-ltwiki d is=1f rs=0.00426912 n=0.926332 eg=0.6 xti=0.5 bv=1200 ibv=0.0001 cjo=1e-11 vj=0.7 m=0.5 fc=0.5 tt=1n
.model 40eps16-ltwiki d is=1f rs=0.00426912 n=0.926332 eg=0.6 xti=0.5 bv=1600 ibv=0.0001 cjo=1e-11 vj=0.7 m=0.5 fc=0.5 tt=1n
.model 50wq06fn-ltwiki d is=1f rs=0.0205874 n=0.5 eg=1.3 xti=0.5 bv=1000 ibv=0.0001 cjo=8.86241e-10 vj=0.899259 m=0.559144 fc=0.5 tt=1n
.model 5eq100-ltwiki d is=8.77154e-05 rs=0.0202145 n=2 eg=0.815312 xti=3.9995 bv=100 ibv=0.005 cjo=1.06148n vj=0.79108 m=0.475554 fc=0.5 tt=0
.model 60lq045-ltwiki d is=1e-07 rs=0.00252226 n=0.914851 eg=0.6 xti=0.5 bv=45 ibv=0.0001 cjo=6.87655n vj=0.4 m=0.408789 fc=0.5 tt=0
.model 60lq100-ltwiki d is=0.001 rs=0.0026041 n=1.79037 eg=0.6 xti=0.5 bv=100 ibv=0.0001 cjo=4.12278n vj=0.4 m=0.477205 fc=0.5 tt=0
.model 6cwq04fn-ltwiki d is=7.48131e-13 rs=0.0287717 n=0.540086 eg=0.6 xti=0.5 bv=40 ibv=0.0001 cjo=5.09354e-10 vj=0.795245 m=0.513157 fc=0.5 tt=1n
.model 6cwq10fn-ltwiki d is=1.92816u rs=0.0227346 n=2 eg=0.6 xti=0.5 bv=100 ibv=0.001 cjo=2.9028e-10 vj=0.4 m=0.453836 fc=0.5 tt=1n
.model 6tq045-ltwiki d is=1.1357e-08 rs=0.0148614 n=0.895316 eg=1.3 xti=4 bv=45 ibv=0.0001 cjo=7.53573e-10 vj=1.5 m=0.502931 fc=0.5 tt=0
.model 75lq150-ltwiki d is=6.47147e-05 rs=0.00457083 n=2 eg=0.6 xti=0.5 bv=150 ibv=0.0001 cjo=3.61923n vj=0.4 m=0.479638 fc=0.5 tt=0
.model 75slq030-ltwiki d is=1.05375e-05 rs=0.00235787 n=0.994404 eg=1.3 xti=0.5 bv=30 ibv=0.0001 cjo=1.14291e-08 vj=0.4 m=0.46991 fc=0.5 tt=0
.model 80clq150-ltwiki d is=3.00965e-05 rs=0.00595685 n=2 eg=1.3 xti=3.40773 bv=150 ibv=0.0001 cjo=1.45286n vj=0.4 m=0.415374 fc=0.5 tt=0
.model 80ebu02-ltwiki d is=6.10239u rs=0.00151476 n=2 eg=0.1 xti=0.0005 bv=200 ibv=50u cjo=1.77691n vj=0.4 m=0.495417 fc=0.5 tt=1n
.model 80ebu02-volval d is=6.10239u rs=0.00151476 n=2 eg=0.1 xti=0.0005 bv=200 ibv=50u cjo=1.77691n vj=0.4 m=0.495417 fc=0.5 tt=1n
.model 8eq045-ltwiki d is=1.8026e-05 rs=0.0138308 n=1.50131 eg=0.689509 xti=4 bv=45 ibv=0.005 cjo=1.98488n vj=0.711167 m=0.477336 fc=0.5 tt=0
.model 8eth06-ltwiki d is=6.92843e-10 rs=0.121017 n=2 eg=1.3 xti=0.528448 bv=600 ibv=0.0001 cjo=1.56732e-10 vj=0.4 m=0.404011 fc=0.5 tt=1n
.model 8ews08-ltwiki d is=1.04304e-07 rs=0.0103888 n=2 eg=1.28885 xti=3.00461 bv=800 ibv=0.0001 cjo=1e-11 vj=0.7 m=0.5 fc=0.5 tt=1n
.model 8ews10-ltwiki d is=1.17378e-07 rs=0.0104837 n=2 eg=1.29966 xti=3.06473 bv=1000 ibv=0.0001 cjo=1e-11 vj=0.7 m=0.5 fc=0.5 tt=1n
.model 8ews12-ltwiki d is=1e-07 rs=0.0115955 n=1.9747 eg=0.6 xti=0.5 bv=1200 ibv=0.0001 cjo=1e-11 vj=0.7 m=0.5 fc=0.5 tt=1n
.model 90clq100-ltwiki d is=0.00032603 rs=0.00931445 n=2 eg=1.3 xti=0.5 bv=100 ibv=0.0001 cjo=3.07785n vj=0.4 m=0.479989 fc=0.5 tt=0
.model aa112-ltwiki d is=1.2u n=1.4 rs=80 cjo=1.2p tt=18n eg=0.69 type=germanium
.model aa112-volval d is=1.2u n=1.4 rs=80 cjo=1.2p tt=18n eg=0.69 type=germanium
.model aeg_aa112-ltwiki d is=2.777779u rs=35.67365 bv=20 ibv=0.0022 cjo=1p tt=1p m=0.5 vj=1 n=2.172326 eg=0.67 fc=0.5 type=germanium
.model aeg_aa112-volval d is=2.777779u rs=35.67365 bv=20 ibv=0.0022 cjo=1p tt=1p m=0.5 vj=1 n=2.172326 eg=0.67 fc=0.5 type=germanium
.model aeg_aa117-ltwiki d is=1.111111e-05 rs=46.02731 bv=115 ibv=0.006 cjo=1p tt=1p isr=1.581139u m=0.5 vj=0.5 n=3.542911 ikf=0.03 nr=29.56001 eg=0.67 fc=0.5 xti=3.012615 nbv=14.78 ibvl=0.00007 nbvl=22.17001 type=germanium
.model aeg_aa117-volval d is=1.111111e-05 rs=46.02731 bv=115 ibv=0.006 cjo=1p tt=1p isr=1.581139u m=0.5 vj=0.5 n=3.542911 ikf=0.03 nr=29.56001 eg=0.67 fc=0.5 xti=3.012615 nbv=14.78 ibvl=0.00007 nbvl=22.17001 type=germanium
.model al307-ltwiki d is=5.493858e-021 n=1.41399 rs=46.6023 tt=5u cjo=5p vj=750m eg=1.43 type=led mfg=ussr
.model al307-volval d is=5.493858e-021 n=1.41399 rs=46.6023 tt=5u cjo=5p vj=750m eg=1.43 type=led mfg=ussr
.model aot-2015-ltspice d is=5.961e-10 rs=1.07 n=6.222 cjo=.5n xti=200 iave=175ma vpk=5 mfg=aot type=led
.model aot-2015-ltwiki d is=5.961e-10 rs=1.07 n=6.222 cjo=.5n xti=200 iave=175ma vpk=5 mfg=aot type=led
.model aot-2015-volval d is=5.961e-10 rs=1.07 n=6.222 cjo=.5n xti=200 iave=175ma vpk=5 mfg=aot type=led
.model apt1608surck-ltwiki d is=2.01e-17 n=2.139 rs=2 m=0.431 vj=2.32 cjo=35pf ibv=10u bv=5 eg=2.26 xti=3 iave=30ma vpk=5 mfg=kingbright type=led
.model apt1608surck-volval d is=2.01e-17 n=2.139 rs=2 m=0.431 vj=2.32 cjo=35pf ibv=10u bv=5 eg=2.26 xti=3 iave=30ma vpk=5 mfg=kingbright type=led
.model b0520ws-ltwiki d is=1.96u rs=0.131 bv=20.0 ibv=250u cjo=170p m=0.333 n=0.907 tt=7.2n vpk=20v iave=0.5a mfg=diodes_inc type=schottky
.model b0520ws-volval d is=1.96u rs=0.131 bv=20.0 ibv=250u cjo=170p m=0.333 n=0.907 tt=7.2n vpk=20v iave=0.5a mfg=diodes_inc type=schottky
.model b520c-ltspice d is=200u rs=8m cjo=300p n=1.7 ikf=2 isr=200u nr=2 iave=5 vpk=20 mfg=diodes_inc. type=schottky
.model b520c-ltwiki d is=200u rs=8m cjo=300p n=1.7 ikf=2 isr=200u nr=2 iave=5 vpk=20 mfg=diodes_inc. type=schottky
.model b520c-volval d is=200u rs=8m cjo=300p n=1.7 ikf=2 isr=200u nr=2 iave=5 vpk=20 mfg=diodes_inc. type=schottky
.model b530c-ltspice d is=200u rs=8m cjo=300p n=1.7 ikf=2 isr=200u nr=2 iave=5 vpk=30 mfg=diodes_inc. type=schottky
.model b530c-ltwiki d is=200u rs=8m cjo=300p n=1.7 ikf=2 isr=200u nr=2 iave=5 vpk=30 mfg=diodes_inc. type=schottky
.model b530c-volval d is=200u rs=8m cjo=300p n=1.7 ikf=2 isr=200u nr=2 iave=5 vpk=30 mfg=diodes_inc. type=schottky
.model b540c-ltspice d is=200u rs=8m cjo=300p n=1.7 ikf=2 isr=200u nr=2 iave=5 vpk=40 mfg=diodes_inc. type=schottky
.model b540c-ltwiki d is=200u rs=8m cjo=300p n=1.7 ikf=2 isr=200u nr=2 iave=5 vpk=40 mfg=diodes_inc. type=schottky
.model b540c-volval d is=200u rs=8m cjo=300p n=1.7 ikf=2 isr=200u nr=2 iave=5 vpk=40 mfg=diodes_inc. type=schottky
.model b550c-ltspice d is=20u rs=25m cjo=300p n=1.7 ikf=10 isr=100u nr=2 iave=5 vpk=50 mfg=diodes_inc. type=schottky
.model b550c-ltwiki d is=20u rs=25m cjo=300p n=1.7 ikf=10 isr=100u nr=2 iave=5 vpk=50 mfg=diodes_inc. type=schottky
.model b550c-volval d is=20u rs=25m cjo=300p n=1.7 ikf=10 isr=100u nr=2 iave=5 vpk=50 mfg=diodes_inc. type=schottky
.model b560c-ltspice d is=20u rs=25m cjo=300p n=1.7 ikf=10 isr=100u nr=2 iave=5 vpk=60 mfg=diodes_inc. type=schottky
.model b560c-ltwiki d is=20u rs=25m cjo=300p n=1.7 ikf=10 isr=100u nr=2 iave=5 vpk=60 mfg=diodes_inc. type=schottky