* Merge Libraries by KSKelvin
* filename: standard (from ltwiki).bjt
* filename: standard (from VolVal).bjt
* filename: standard (from LTspice).bjt
*
.model 2n1132-ltwiki npn is=9.99916f bf=55.9464 nf=998.061m vaf=100 ikf=9.98401k ise=3.62279f ne=1.10688 br=1.55171 ikr=9.99993m isc=106.162p re=3.44553 rc=5.64395 cje=104.717p vje=700.004m mje=499.511m cjc=175.838p vjc=699.998m mjc=499.794m tf=2.66025n xtf=500.005m vtf=10 itf=9.68022m tr=10n
.model 2n1711-ltwiki npn is=5.80495e-14 nf=1.00578 vaf=430.283 ikf=1.47556 ise=5.00431e-16 ne=1.17121 br=6.50271 nr=1.00234 var=29.3468 ikr=0.396801 isc=7.02023f nc=1.01086 rb=61.0257 re=0.0649012 eg=1.11 xti=3 cje=6.12932e-11 vje=0.718394 mje=0.34929 vjc=0.490763 mjc=0.358852 fc=0.5 bf=1.46604e+02 cjc=1.8145e-11 rc=1.16875 tf=2.273642n xtf=1
.model 2n1711-volval npn is=5.80495e-14 nf=1.00578 vaf=430.283 ikf=1.47556 ise=5.00431e-16 ne=1.17121 br=6.50271 nr=1.00234 var=29.3468 ikr=0.396801 isc=7.02023f nc=1.01086 rb=61.0257 re=0.0649012 eg=1.11 xti=3 cje=6.12932e-11 vje=0.718394 mje=0.34929 vjc=0.490763 mjc=0.358852 xcjc=1 vjs=0.75 fc=0.5 bf=1.466040e+02 cjc=1.814500e-11 rc=1.168750 tf=2.273642n xtf=1.000000 pmax=3w vbcmax=-75v vbemax=-7v
.model 2n2102-ltwiki npn is=1.1791e-10 bf=79.3546 nf=1.42901 vaf=30.134 ikf=0.640083 ise=7.91563p ne=3.31476 br=3.76239 nr=1.5 var=3.69384 ikr=2.76346 isc=3.24999e-13 nc=3.96875 rb=0.1 irb=0.1 rbm=0.1 re=0.00431604 rc=0.38569 xtb=0.1 xti=1 eg=1.05 cje=1e-11 vje=0.75 mje=0.33 tf=1n xtf=1 vtf=10 itf=0.01 cjc=1.3035e-11 vjc=0.62509 mjc=0.23 xcjc=0.9 fc=0.5 cjs=0 vjs=0.75 mjs=0.5 tr=1e-07 ptf=0
.model 2n2219a-ltspice npn is=14.34f xti=3 eg=1.11 vaf=74.03 bf=255.9 ne=1.307 ise=14.34f ikf=.2847 xtb=1.5 br=6.092 nc=2 isc=0 ikr=0 rc=1 cjc=7.306p mjc=.3416 vjc=.75 fc=.5 cje=22.01p mje=.377 vje=.75 tr=46.91n tf=411.1p itf=.6 vtf=1.7 xtf=3 rb=10 vceo=40 icrating=800m mfg=nxp
.model 2n2219a-ltwiki npn is=14.34f xti=3 eg=1.11 vaf=74.03 bf=255.9 ne=1.307 ise=14.34f ikf=.2847 xtb=1.5 br=6.092 nc=2 isc=0 ikr=0 rc=1 cjc=7.306p mjc=.3416 vjc=.75 fc=.5 cje=22.01p mje=.377 vje=.75 tr=46.91n tf=411.1p itf=.6 vtf=1.7 xtf=3 rb=10 vceo=40 icrating=800m mfg=nxp
.model 2n2219a-volval npn is=14.34f xti=3 eg=1.11 vaf=74.03 bf=255.9 ne=1.307 ise=14.34f ikf=.2847 xtb=1.5 br=6.092 nc=2 isc=0 ikr=0 rc=1 cjc=7.306p mjc=.3416 vjc=.75 fc=.5 cje=22.01p mje=.377 vje=.75 tr=46.91n tf=411.1p itf=.6 vtf=1.7 xtf=3 rb=10 vceo=40 icrating=800m mfg=nxp
.model 2n2222-ltspice npn is=1e-14 vaf=100 bf=200 ikf=0.3 xtb=1.5 br=3 cjc=8p cje=25p tr=100n tf=400p itf=1 vtf=2 xtf=3 rb=10 rc=.3 re=.2 vceo=30 icrating=800m mfg=nxp
.model 2n2222-ltwiki npn is=1e-14 vaf=100 bf=200 ikf=0.3 xtb=1.5 br=3 cjc=8p cje=25p tr=100n tf=400p itf=1 vtf=2 xtf=3 rb=10 rc=.3 re=.2 vceo=30 icrating=800m mfg=nxp
.model 2n2222-volval npn is=1e-14 vaf=100 bf=200 ikf=0.3 xtb=1.5 br=3 cjc=8p cje=25p tr=100n tf=400p itf=1 vtf=2 xtf=3 rb=10 rc=.3 re=.2 vceo=30 icrating=800m mfg=nxp
.model 2n2222a-ltwiki npn is=14.34f xti=3 eg=1.11 vaf=74.03 bf=255.9 ne=1.307 ise=14.34f ikf=.2847 xtb=1.5 br=6.092 nc=2 isc=0 ikr=0 rc=1 cjc=7.306p mjc=.3416 vjc=.75 fc=.5 cje=22.01p mje=.377 vje=.75 tr=46.91n tf=411.1p itf=.6vtf=1.7 xtf=3 rb=10 vceo=40 icrating=800m mfg=fairchild
.model 2n2222a-volval npn is=14.34f xti=3 eg=1.11 vaf=74.03 bf=255.9 ne=1.307 ise=14.34f ikf=.2847 xtb=1.5 br=6.092 nc=2 isc=0 ikr=0 rc=1 cjc=7.306p mjc=.3416 vjc=.75 fc=.5 cje=22.01p mje=.377 vje=.75 tr=46.91n tf=411.1p itf=.6vtf=1.7 xtf=3 rb=10 vceo=40 icrating=800m mfg=fairchild
.model 2n2369-ltspice npn is=44.14f xti=3 eg=1.11 vaf=100 bf=78.32 ne=1.389 ise=91.95f ikf=.3498 xtb=1.5 br=12.69m nc=2 isc=0 ikr=0 rc=.6 cjc=2.83p mjc=86.19m vjc=.75 fc=.5 cje=4.5p mje=.2418 vje=.75 tr=1.073u tf=227.6p itf=.3 vtf=4 xtf=4 rb=10 vceo=15 icrating=200m mfg=nxp
.model 2n2369-ltwiki npn is=44.14f xti=3 eg=1.11 vaf=100 bf=78.32 ne=1.389 ise=91.95f ikf=.3498 xtb=1.5 br=12.69m nc=2 isc=0 ikr=0 rc=.6 cjc=2.83p mjc=86.19m vjc=.75 fc=.5 cje=4.5p mje=.2418 vje=.75 tr=1.073u tf=227.6p itf=.3 vtf=4 xtf=4 rb=10 vceo=15 icrating=200m mfg=nxp
.model 2n2369-volval npn is=44.14f xti=3 eg=1.11 vaf=100 bf=78.32 ne=1.389 ise=91.95f ikf=.3498 xtb=1.5 br=12.69m nc=2 isc=0 ikr=0 rc=.6 cjc=2.83p mjc=86.19m vjc=.75 fc=.5 cje=4.5p mje=.2418 vje=.75 tr=1.073u tf=227.6p itf=.3 vtf=4 xtf=4 rb=10 vceo=15 icrating=200m mfg=nxp
.model 2n242-ltwiki pnp is=524n nf=1 bf=156 vaf=106 ikf=3 ise=330n ne=2 br=4 nr=1 var=40 ikr=4.5 re=.190 rb=.763 rc=76.3m xtb=1.5 cje=1.07n cjc=315p tf=1.5u tr=3u vceo=35 icrating=5 mfg=germanium-type
.model 2n242-volval pnp is=524n nf=1 bf=156 vaf=106 ikf=3 ise=330n ne=2 br=4 nr=1 var=40 ikr=4.5 re=.190 rb=.763 rc=76.3m xtb=1.5 cje=1.07n cjc=315p tf=31.8u tr=437n
.model 2n2484-ltwiki npn is=5.911f ise=5.911f isc=0 xti=3 bf=697.1 br=1.297 ikf=13.93m ikr=0 xtb=1.5 vaf=62.37 var=21.5 vje=0.65 vjc=0.65 re=0.15 rc=1.61 rb=10 cje=4.973p cjc=4.017p xcjc=0.75 fc=0.5 nf=1 nr=1 ne=1.342 nc=2 mje=0.4146 mjc=0.3174 tf=820.4p tr=4.687n itf=0.35 vtf=4 xtf=7 eg=1.11 vceo=60 icrating=50m mfg=nsc
.model 2n2484-volval npn is=5.911f ise=5.911f isc=0 xti=3 bf=697.1 br=1.297 ikf=13.93m ikr=0 xtb=1.5 vaf=62.37 var=21.5 vje=0.65 vjc=0.65 re=0.15 rc=1.61 rb=10 cje=4.973p cjc=4.017p xcjc=0.75 fc=0.5 nf=1 nr=1 ne=1.342 nc=2 mje=0.4146 mjc=0.3174 tf=820.4p tr=4.687n itf=0.35 vtf=4 xtf=7 eg=1.11 vceo=60 icrating=50m mfg=nsc
.model 2n2905-ltwiki pnp is=650.6e-18 ise=54.81f isc=0 xti=3 bf=231.7 br=3.563 ikf=1.079 ikr=0 xtb=1.5 vaf=115.7 var=35 vje=0.65 vjc=0.65 re=0.15 rc=0.715 rb=10 cje=19.82p cjc=14.76p xcjc=0.75 fc=0.5 nf=1 nr=1 ne=1.829 nc=2 mje=0.3357 mjc=0.5383 tf=603.7p tr=111.3n itf=0.65 vtf=5 xtf=1.7 eg=1.11 vceo=40 icrating=600m mfg=nxp
.model 2n2905-volval pnp is=650.6e-18 ise=54.81f isc=0 xti=3 bf=231.7 br=3.563 ikf=1.079 ikr=0 xtb=1.5 vaf=115.7 var=35 vje=0.65 vjc=0.65 re=0.15 rc=0.715 rb=10 cje=19.82p cjc=14.76p xcjc=0.75 fc=0.5 nf=1 nr=1 ne=1.829 nc=2 mje=0.3357 mjc=0.5383 tf=603.7p tr=111.3n itf=0.65 vtf=5 xtf=1.7 eg=1.11 vceo=40 icrating=600m mfg=nxp
.model 2n2905a-ltspice pnp is=650.6e-18 xti=3 eg=1.11 vaf=115.7 bf=231.7 ne=1.829 ise=54.81f ikf=1.079 xtb=1.5 br=3.563 nc=2 isc=0 ikr=0 rc=.715 cjc=14.76p mjc=.5383 vjc=.75 fc=.5 cje=19.82p mje=.3357 vje=.75 tr=111.3n tf=603.7p itf=.65 vtf=5 xtf=1.7 rb=10 vceo=60 icrating=600m mfg=nxp
.model 2n2905a-ltwiki pnp is=650.6e-18 xti=3 eg=1.11 vaf=115.7 bf=231.7 ne=1.829 ise=54.81f ikf=1.079 xtb=1.5 br=3.563 nc=2 isc=0 ikr=0 rc=.715 cjc=14.76p mjc=.5383 vjc=.75 fc=.5 cje=19.82p mje=.3357 vje=.75 tr=111.3n tf=603.7p itf=.65 vtf=5 xtf=1.7 rb=10 vceo=60 icrating=600m mfg=nxp
.model 2n2905a-volval pnp is=650.6e-18 xti=3 eg=1.11 vaf=115.7 bf=231.7 ne=1.829 ise=54.81f ikf=1.079 xtb=1.5 br=3.563 nc=2 isc=0 ikr=0 rc=.715 cjc=14.76p mjc=.5383 vjc=.75 fc=.5 cje=19.82p mje=.3357 vje=.75 tr=111.3n tf=603.7p itf=.65 vtf=5 xtf=1.7 rb=10 vceo=60 icrating=600m mfg=nxp
.model 2n2907-ltspice pnp is=1e-14 vaf=120 bf=250 ikf=0.3 xtb=1.5 br=3 cjc=8p cje=30p tr=100n tf=400p itf=1 vtf=2 xtf=3 rb=10 rc=.3 re=.2 vceo=40 icrating=600m mfg=nxp
.model 2n2907-ltwiki pnp is=1e-14 vaf=120 bf=250 ikf=0.3 xtb=1.5 br=3 cjc=8p cje=30p tr=100n tf=400p itf=1 vtf=2 xtf=3 rb=10 rc=.3 re=.2 vceo=40 icrating=600m mfg=nxp
.model 2n2907-volval pnp is=1e-14 vaf=120 bf=250 ikf=0.3 xtb=1.5 br=3 cjc=8p cje=30p tr=100n tf=400p itf=1 vtf=2 xtf=3 rb=10 rc=.3 re=.2 vceo=40 icrating=600m mfg=nxp
.model 2n2907p-ltwiki pnp is=650.6e-18 ise=54.81f isc=0 xti=3 bf=231.7 br=3.563 ikf=1.079 ikr=0 xtb=1.5 vaf=115.7 var=35 vje=0.65 vjc=0.65 re=0.15 rc=0.715 rb=10 cje=19.82p cjc=14.76p xcjc=0.75 fc=0.5 nf=1 nr=1 ne=1.829 nc=2 mje=0.3357 mjc=0.5383 tf=603.7p tr=111.3n itf=0.65 vtf=5 xtf=1.7 eg=1.11 vceo=40 icrating=600m mfg=nsc-nxp
.model 2n2907p-volval pnp is=650.6e-18 ise=54.81f isc=0 xti=3 bf=231.7 br=3.563 ikf=1.079 ikr=0 xtb=1.5 vaf=115.7 var=35 vje=0.65 vjc=0.65 re=0.15 rc=0.715 rb=10 cje=19.82p cjc=14.76p xcjc=0.75 fc=0.5 nf=1 nr=1 ne=1.829 nc=2 mje=0.3357 mjc=0.5383 tf=603.7p tr=111.3n itf=0.65 vtf=5 xtf=1.7 eg=1.11 vceo=40 icrating=600m mfg=nsc-nxp
.model 2n2907s-ltwiki pnp is=2.32e-13 ise=6.69e-16 isc=1.65e-13 xti=3.00 bf=3.08e2 br=2.18e1 ikf=8.42e-1 ikr=1.00 xtb=1.5 vaf=1.41e2 var=1.35e1 vje=3.49e-1 vjc=3.00e-1 re=1.00e-2 rc=8.46e-1 rb=4.02e1 rbm=1.00e-2 irb=1.25e-2 cje=2.66e-11 cjc=1.93e-11 xcjc=1. fc=5.00e-1 nf=1.04 nr=1.12 ne=1.09 nc=1.13 mje=4.60e-1 mjc=4.65e-1 tf=4.95e-10 tr=0 itf=3.36e-1 vtf=6.54 xtf=1.87e1 eg=1.11 vceo=80 icrating=5 mfg=siemens
.model 2n2907s-volval pnp is=2.32e-13 ise=6.69e-16 isc=1.65e-13 xti=3.00 bf=3.08e2 br=2.18e1 ikf=8.42e-1 ikr=1.00 xtb=1.5 vaf=1.41e2 var=1.35e1 vje=3.49e-1 vjc=3.00e-1 re=1.00e-2 rc=8.46e-1 rb=4.02e1 rbm=1.00e-2 irb=1.25e-2 cje=2.66e-11 cjc=1.93e-11 xcjc=1.00 fc=5.00e-1 nf=1.04 nr=1.12 ne=1.09 nc=1.13 mje=4.60e-1 mjc=4.65e-1 tf=4.95e-10 tr=0 ptf=0 itf=3.36e-1 vtf=6.54 xtf=1.87e1 eg=1.11 vceo=80 icrating=5 mfg=siemens
.model 2n2955-ltwiki pnp is=4.66p bf=360 vaf=100 ikf=0.25 ise=3.339e-11 br=2 isc=5n rb=3 irb=0.001 rbm=0.4 rc=0.04 cje=5.802e-10 vje=1.2 mje=0.45 tf=8e-8 xtf=1 itf=3 ptf=120 cjc=2.121e-10 mjc=0.4 tr=2.55u xtb=1 vceo=70 icrating=15
.model 2n2955-volval pnp is=1.25n nf=1 bf=78 vaf=90 ikf=60m ise=4.57n ne=2 br=4 nr=1 var=14 ikr=90m re=2.63 rb=10.5 rc=1.05 xtb=1.5 cje=27.9p cjc=8.22p tf=437p tr=17n
.model 2n3019-ltspice npn is=14f vaf=100 bf=200 ikf=.75 xtb=1.5 br=5 rc=.7 cjc=16p mjc=.36 cje=55p mje=.1553 tr=800p tf=800p itf=1.2 vtf=5 xtf=55 rb=10 vceo=80 icrating=1 mfg=semicoa
.model 2n3019-ltwiki npn is=14f vaf=100 bf=200 ikf=.75 xtb=1.5 br=5 rc=.7 cjc=16p mjc=.36 cje=55p mje=.1553 tr=800p tf=800p itf=1.2 vtf=5 xtf=55 rb=10 vceo=80 icrating=1 mfg=semicoa
.model 2n3019-volval npn is=14f vaf=100 bf=200 ikf=.75 xtb=1.5 br=5 rc=.7 cjc=16p mjc=.36 cje=55p mje=.1553 tr=800p tf=800p itf=1.2 vtf=5 xtf=55 rb=10 vceo=80 icrating=1 mfg=semicoa
.model 2n3053-ltwiki npn is=71.1f nf=1 bf=260 vaf=113 ikf=.42 ise=27.3p ne=2 br=4 nr=1 var=20 ikr=.63 re=73.6m rb=.294 rc=29.4m xtb=1.5 cje=79.2p vje=1.1 mje=.5 cjc=25.5p vjc=.3 mjc=.3 tf=858p tr=596n vceo=40 icrating=700m mfg=motorola
.model 2n3053-volval npn is=71.1f nf=1 bf=260 vaf=113 ikf=.42 ise=27.3p ne=2 br=4 nr=1 var=20 ikr=.63 re=73.6m rb=.294 rc=29.4m xtb=1.5 cje=79.2p vje=1.1 mje=.5 cjc=25.5p vjc=.3 mjc=.3 tf=858p tr=596n vceo=40 icrating=700m mfg=motorola
.model 2n3055-ltspice npn bf=73 br=2.66 rb=.81 rc=.0856 re=.000856 cjc=1000p pc=.75 mc=.33 tr=.5703u is=2.37e-8 cje=415p pe=.75 me=.5 tf=99.52n ne=1.26 ik=1 vceo=60 icrating=10 mfg=stmicro
.model 2n3055-ltwiki npn bf=73 br=2.66 rb=.81 rc=.0856 re=.000856 cjc=1000p pc=.75 mc=.33 tr=.5703u is=2.37e-8 cje=415p pe=.75 me=.5 tf=99.52n ne=1.26 ik=1 vceo=60 icrating=10 mfg=stmicro
.model 2n3055-volval npn bf=73 br=2.66 rb=.81 rc=.0856 re=.000856 cjc=1000p pc=.75 mc=.33 tr=.5703u is=2.37e-8 cje=415p pe=.75 me=.5 tf=99.52n ne=1.26 ik=1 vceo=60 icrating=10 mfg=stmicro
.model 2n3055h-ltwiki npn is=2.37426e-14 bf=129.119 nf=0.85 vaf=31.1252 ikf=0.990922 ise=2.47498e-10 ne=1.89002 br=1.01252 nr=0.924456 var=254.624 ikr=2.70227 isc=2.47498e-10 nc=2.90624 rb=3.66609 irb=0.1 rbm=0.1 re=0.000352673 rc=0.0764459 xtb=1.34801 xti=1.07207 eg=1.206 cje=9.03089e-08 vje=0.513954 mje=0.59999 tf=1e-08 xtf=1.36696 vtf=1.02605 itf=0.987296 cjc=5e-10 vjc=0.400243 mjc=0.410238 xcjc=0.803124 fc=0.661216 tr=1e-07 vceo=60 icrating=15 mfg=motorola
.model 2n3055h-volval npn is=2.37426e-14 bf=129.119 nf=0.85 vaf=31.1252 ikf=0.990922 ise=2.47498e-10 ne=1.89002 br=1.01252 nr=0.924456 var=254.624 ikr=2.70227 isc=2.47498e-10 nc=2.90624 rb=3.66609 irb=0.1 rbm=0.1 re=0.000352673 rc=0.0764459 xtb=1.34801 xti=1.07207 eg=1.206 cje=9.03089e-08 vje=0.513954 mje=0.59999 tf=1e-08 xtf=1.36696 vtf=1.02605 itf=0.987296 cjc=5e-10 vjc=0.400243 mjc=0.410238 xcjc=0.803124 fc=0.661216 tr=1e-07 ptf=0 vceo=60 icrating=15 mfg=motorola
.model 2n3390-ltwiki npn is=12.03f ise=1.842p isc=0 xti=3 bf=685.8 br=4.379 ikf=0.1072 ikr=0 xtb=1.5 vaf=37.37 var=12.5 vje=0.65 vjc=0.65 re=0.1 rc=1 rb=10 cje=8.307p cjc=5.777p xcjc=0.75 fc=0.5 nf=1 nr=1 ne=1.971 nc=2 mje=0.384 mjc=0.3199 tf=385.4p tr=685.3p itf=0.17 vtf=3 xtf=8 eg=1.11 vceo=25 icrating=100m mfg=nsc
.model 2n3390-volval npn is=12.03f ise=1.842p isc=0 xti=3 bf=685.8 br=4.379 ikf=0.1072 ikr=0 xtb=1.5 vaf=37.37 var=12.5 vje=0.65 vjc=0.65 re=0.1 rc=1 rb=10 cje=8.307p cjc=5.777p xcjc=0.75 fc=0.5 nf=1 nr=1 ne=1.971 nc=2 mje=0.384 mjc=0.3199 tf=385.4p tr=685.3p itf=0.17 vtf=3 xtf=8 eg=1.11 vceo=25 icrating=100m mfg=nsc
.model 2n3391a-ltspice npn is=12.03f xti=3 eg=1.11 vaf=37.37 bf=427.8 ne=1.971 ise=2.953p ikf=.1072 xtb=1.5 br=4.379 nc=2 isc=0 ikr=0 rc=1 cjc=5.777p mjc=.3199 vjc=.75 fc=.5 cje=8.307p mje=.384 vje=.75 tr=701.7p tf=385.4p itf=.17 vtf=3 xtf=8 rb=10 vceo=25 icrating=500m mfg=fairchild
.model 2n3391a-ltwiki npn is=12.03f xti=3 eg=1.11 vaf=37.37 bf=427.8 ne=1.971 ise=2.953p ikf=.1072 xtb=1.5 br=4.379 nc=2 isc=0 ikr=0 rc=1 cjc=5.777p mjc=.3199 vjc=.75 fc=.5 cje=8.307p mje=.384 vje=.75 tr=701.7p tf=385.4p itf=.17 vtf=3 xtf=8 rb=10 vceo=25 icrating=500m mfg=fairchild
.model 2n3391a-volval npn is=12.03f xti=3 eg=1.11 vaf=37.37 bf=427.8 ne=1.971 ise=2.953p ikf=.1072 xtb=1.5 br=4.379 nc=2 isc=0 ikr=0 rc=1 cjc=5.777p mjc=.3199 vjc=.75 fc=.5 cje=8.307p mje=.384 vje=.75 tr=701.7p tf=385.4p itf=.17 vtf=3 xtf=8 rb=10 vceo=25 icrating=500m mfg=fairchild
.model 2n3392-ltwiki npn is=12.03f ise=4.958p isc=0 xti=3 bf=254.8 br=4.379 ikf=0.1072 ikr=0 xtb=1.5 vaf=37.37 var=12.5 vje=0.65 vjc=0.65 re=0.1 rc=1 rb=10 cje=8.307p cjc=5.777p xcjc=0.75 fc=0.5 nf=1 nr=1 ne=1.971 nc=2 mje=0.384 mjc=0.3199 tf=385.4p tr=732.1p itf=0.17 vtf=3 xtf=8 eg=1.11 vceo=25 icrating=100m mfg=nsc
.model 2n3392-volval npn is=12.03f ise=4.958p isc=0 xti=3 bf=254.8 br=4.379 ikf=0.1072 ikr=0 xtb=1.5 vaf=37.37 var=12.5 vje=0.65 vjc=0.65 re=0.1 rc=1 rb=10 cje=8.307p cjc=5.777p xcjc=0.75 fc=0.5 nf=1 nr=1 ne=1.971 nc=2 mje=0.384 mjc=0.3199 tf=385.4p tr=732.1p itf=0.17 vtf=3 xtf=8 eg=1.11 vceo=25 icrating=100m mfg=nsc
.model 2n3393-ltwiki npn is=12.03f ise=8.195p isc=0 xti=3 bf=154.1 br=4.379 ikf=0.1072 ikr=0 xtb=1.5 vaf=37.37 var=12.5 vje=0.65 vjc=0.65 re=0.1 rc=1 rb=10 cje=8.307p cjc=5.777p xcjc=0.75 fc=0.5 nf=1 nr=1 ne=1.971 nc=2 mje=0.384 mjc=0.3199 tf=385.4p tr=783.8p itf=0.17 vtf=3 xtf=8 eg=1.11 vceo=25 icrating=100m mfg=nsc
.model 2n3393-volval npn is=12.03f ise=8.195p isc=0 xti=3 bf=154.1 br=4.379 ikf=0.1072 ikr=0 xtb=1.5 vaf=37.37 var=12.5 vje=0.65 vjc=0.65 re=0.1 rc=1 rb=10 cje=8.307p cjc=5.777p xcjc=0.75 fc=0.5 nf=1 nr=1 ne=1.971 nc=2 mje=0.384 mjc=0.3199 tf=385.4p tr=783.8p itf=0.17 vtf=3 xtf=8 eg=1.11 vceo=25 icrating=100m mfg=nsc
.model 2n3415-ltwiki npn is=12.03f ise=3.346p isc=0 xti=3 bf=377.5 br=4.379 ikf=0.1072 ikr=0 xtb=1.5 vaf=37.37 var=12.5 vje=0.65 vjc=0.65 re=0.1 rc=1 rb=10 cje=8.307p cjc=5.777p xcjc=0.75 fc=0.5 nf=1 nr=1 ne=1.971 nc=2 mje=0.384 mjc=0.3199 tf=385.4p tr=707.6p itf=0.17 vtf=3 xtf=8 eg=1.11 vceo=25 icrating=500m mfg=nsc
.model 2n3415-volval npn is=12.03f ise=3.346p isc=0 xti=3 bf=377.5 br=4.379 ikf=0.1072 ikr=0 xtb=1.5 vaf=37.37 var=12.5 vje=0.65 vjc=0.65 re=0.1 rc=1 rb=10 cje=8.307p cjc=5.777p xcjc=0.75 fc=0.5 nf=1 nr=1 ne=1.971 nc=2 mje=0.384 mjc=0.3199 tf=385.4p tr=707.6p itf=0.17 vtf=3 xtf=8 eg=1.11 vceo=25 icrating=500m mfg=nsc
.model 2n3416-ltwiki npn is=12.03f ise=8.031p isc=0 xti=3 bf=157.3 br=4.379 ikf=0.1072 ikr=0 xtb=1.5 vaf=37.37 var=12.5 vje=0.65 vjc=0.65 re=0.1 rc=1 rb=10 cje=8.307p cjc=5.777p xcjc=0.75 fc=0.5 nf=1 nr=1 ne=1.971 nc=2 mje=0.384 mjc=0.3199 tf=385.4p tr=781.1p itf=0.17 vtf=3 xtf=8 eg=1.11 vceo=50 icrating=500m mfg=nsc
.model 2n3416-volval npn is=12.03f ise=8.031p isc=0 xti=3 bf=157.3 br=4.379 ikf=0.1072 ikr=0 xtb=1.5 vaf=37.37 var=12.5 vje=0.65 vjc=0.65 re=0.1 rc=1 rb=10 cje=8.307p cjc=5.777p xcjc=0.75 fc=0.5 nf=1 nr=1 ne=1.971 nc=2 mje=0.384 mjc=0.3199 tf=385.4p tr=781.1p itf=0.17 vtf=3 xtf=8 eg=1.11 vceo=50 icrating=500m mfg=nsc
.model 2n3417-ltwiki npn is=12.03f ise=3.346p isc=0 xti=3 bf=377.5 br=4.379 ikf=0.1072 ikr=0 xtb=1.5 vaf=37.37 var=12.5 vje=0.65 vjc=0.65 re=0.1 rc=1 rb=10 cje=8.307p cjc=5.777p xcjc=0.75 fc=0.5 nf=1 nr=1 ne=1.971 nc=2 mje=0.384 mjc=0.3199 tf=385.4p tr=707.6p itf=0.17 vtf=3 xtf=8 eg=1.11 vceo=50 icrating=500m mfg=nsc
.model 2n3417-volval npn is=12.03f ise=3.346p isc=0 xti=3 bf=377.5 br=4.379 ikf=0.1072 ikr=0 xtb=1.5 vaf=37.37 var=12.5 vje=0.65 vjc=0.65 re=0.1 rc=1 rb=10 cje=8.307p cjc=5.777p xcjc=0.75 fc=0.5 nf=1 nr=1 ne=1.971 nc=2 mje=0.384 mjc=0.3199 tf=385.4p tr=707.6p itf=0.17 vtf=3 xtf=8 eg=1.11 vceo=50 icrating=500m mfg=nsc
.model 2n3439-ltwiki npn is=2.644p xti=3 eg=1.11 vaf=100 bf=1.557k ne=1.305 ise=5.292p ikf=38.4m xtb=1.5 br=10.22 nc=2 isc=0 ikr=0 rc=6 cjc=24.28p mjc=.4169 vjc=.75 fc=.5 cje=105.8p mje=.3681 vje=.75 tr=303.6n tf=2.033n itf=5 vtf=10 xtf=20 rb=10 vceo=350 icrating=1 mfg=motorola
.model 2n3439_-ltwiki npn is=4.95669e-14 bf=217.608 nf=0.989177 vaf=144.204 ikf=1.16129 ise=7.22363p ne=2.22456 br=1.16323 nr=0.965806 var=35.1857 ikr=10 isc=7.22363p nc=3.89846 rb=14.7195 irb=0.1 rbm=0.1 re=0.00296577 rc=0.408396 xtb=1.32969 xti=4 eg=1.206 cje=1.17247e-10 vje=0.4 mje=0.306342 tf=5.70574n xtf=1000 vtf=3.89508 itf=0.608387 cjc=1.89145e-11 vjc=0.501432 mjc=0.30394 xcjc=0.1 fc=0.8 tr=100n ptf=0 vceo=350 icrating=1
.model 2n344-ltwiki pnp is=100p bf=22 vaf=15 cje=5p cjc=2.5p tf=3n eg=.67 rb=100 re=10 mfg=germanium-type
.model 2n3506-ltwiki npn is=86.76f xti=3 eg=1.11 vaf=100 bf=116.1 ise=190.9p ne=2.064 ikf=2.36 nk=.6321 xtb=1.5 var=100 br=30m isc=1p nc=2 ikr=1 rc=.2 cjc=48.58p mjc=.3333 vjc=.75 fc=.5 cje=256.5p mje=.3333 vje=.75 tr=2.112u tf=1.867n itf=1 xtf=0 vtf=10
.model 2n3553-ltwiki npn br=5.68 cje=5.36e-11 eg=1.11 fc=0.5 ikf=0.74 ikr=0.0943 is=1.93e-14 isc=4.76e-14 ise=3.16e-13 itf=0.134 mjc=0.42 mje=0.266 mjs=0.33 nc=1.14 ne=1.57 nf=1.01 nr=1.01 rb=8.07 re=0.0274 vaf=252 var=15.8 vjc=0.583 vje=0.646 vjs=0.75 vtf=0.1 xtb=0 xti=3 bf=6.53e+01 cjc=3.46e-11 rc=5.18e-01 tf=2.6e-10 xtf=1.0e-01
.model 2n3553-volval npn br=5.68 cje=5.36e-11 eg=1.11 fc=0.5 ikf=0.74 ikr=0.0943 is=1.93e-14 isc=4.76e-14 ise=3.16e-13 itf=0.134 mjc=0.42 mje=0.266 mjs=0.33 nc=1.14 ne=1.57 nf=1.01 nr=1.01 ptf=0 rb=8.07 re=0.0274 vaf=252 var=15.8 vjc=0.583 vje=0.646 vjs=0.75 vtf=0.1 xcjc=1 xtb=0 xti=3 bf=6.53e+01 cjc=3.46e-11 rc=5.18e-01 tf=2.6e-10 xtf=1.0e-01
.model 2n3565-ltwiki npn is=5.911f ise=5.911f isc=0 xti=3 bf=697.1 br=1.297 ikf=13.93m ikr=0 xtb=1.5 vaf=62.37 var=21.5 vje=0.65 vjc=0.65 re=0.15 rc=1.61 rb=10 cje=4.973p cjc=4.017p xcjc=0.75 fc=0.5 nf=1 nr=1 ne=1.342 nc=2 mje=0.4146 mjc=0.3174 tf=820.4p tr=4.687n itf=0.35 vtf=4 xtf=7 eg=1.11 vceo=30 icrating=50m mfg=nsc
.model 2n3565-volval npn is=5.911f ise=5.911f isc=0 xti=3 bf=697.1 br=1.297 ikf=13.93m ikr=0 xtb=1.5 vaf=62.37 var=21.5 vje=0.65 vjc=0.65 re=0.15 rc=1.61 rb=10 cje=4.973p cjc=4.017p xcjc=0.75 fc=0.5 nf=1 nr=1 ne=1.342 nc=2 mje=0.4146 mjc=0.3174 tf=820.4p tr=4.687n itf=0.35 vtf=4 xtf=7 eg=1.11 vceo=30 icrating=50m mfg=nsc
.model 2n3585-ltwiki npn is=915f xti=3 eg=1.11 vaf=100 bf=247.7 ise=39.59p ne=1.547 ikf=.3138 nk=.5973 xtb=2.2 var=100 br=14.99 isc=285.2p nc=1.423 ikr=.8443 rc=.4036 cjc=146.5p mjc=.3375 vjc=.3905 fc=.5 cje=733.3p mje=.6277 vje=1.878 tr=1.722u tf=3.962n itf=6.051 xtf=48.54 vtf=10
.model 2n3638a-ltwiki pnp is=650.6e-18 ise=200f isc=0 xti=3 bf=63.49 br=4.254 ikf=1.079 ikr=0 xtb=1.5 vaf=115.7 var=35 vje=0.65 vjc=0.65 re=0.15 rc=0.715 rb=10 cje=19.82p cjc=14.76p xcjc=0.75 fc=0.5 nf=1 nr=1 ne=1.829 nc=2 mje=0.3357 mjc=0.5383 tf=761.3p tr=121.3n itf=0.65 vtf=5 xtf=1.7 eg=1.11 vceo=25 icrating=500m mfg=nsc
.model 2n3638a-volval pnp is=650.6e-18 ise=200f isc=0 xti=3 bf=63.49 br=4.254 ikf=1.079 ikr=0 xtb=1.5 vaf=115.7 var=35 vje=0.65 vjc=0.65 re=0.15 rc=0.715 rb=10 cje=19.82p cjc=14.76p xcjc=0.75 fc=0.5 nf=1 nr=1 ne=1.829 nc=2 mje=0.3357 mjc=0.5383 tf=761.3p tr=121.3n itf=0.65 vtf=5 xtf=1.7 eg=1.11 vceo=25 icrating=500m mfg=nsc
.model 2n3640-ltwiki pnp is=545.6e-18 ise=0 isc=0 xti=3 bf=59.22 br=1.438 ikf=50m ikr=0 xtb=1.5 vaf=100 var=30 vje=0.65 vjc=0.65 re=0.15 rc=3.75 rb=10 cje=2.65p cjc=2.77p xcjc=0.75 fc=0.5 nf=1 nr=1 ne=1.5 nc=2 mje=0.3083 mjc=0.1416 tf=118.5p tr=4.123n itf=0.5 vtf=3 xtf=6 eg=1.11 vceo=12 icrating=80m mfg=nsc
.model 2n3640-volval pnp is=545.6e-18 ise=0 isc=0 xti=3 bf=59.22 br=1.438 ikf=50m ikr=0 xtb=1.5 vaf=100 var=30 vje=0.65 vjc=0.65 re=0.15 rc=3.75 rb=10 cje=2.65p cjc=2.77p xcjc=0.75 fc=0.5 nf=1 nr=1 ne=1.5 nc=2 mje=0.3083 mjc=0.1416 tf=118.5p tr=4.123n itf=0.5 vtf=3 xtf=6 eg=1.11 vceo=12 icrating=80m mfg=nsc
.model 2n3642-ltwiki npn is=14.34f ise=14.34f isc=0 xti=3 bf=118.6 br=7.134 ikf=0.2524 ikr=0 xtb=1.5 vaf=74.03 var=28 vje=0.65 vjc=0.65 re=0.1 rc=1 rb=10 cje=22.01p cjc=7.306p xcjc=0.75 fc=0.5 nf=1 nr=1 ne=1.236 nc=2 mje=0.377 mjc=0.3416 tf=410.3p tr=50.96n itf=0.6 vtf=1.7 xtf=3 eg=1.11 vceo=45 icrating=500m mfg=nsc
.model 2n3642-volval npn is=14.34f ise=14.34f isc=0 xti=3 bf=118.6 br=7.134 ikf=0.2524 ikr=0 xtb=1.5 vaf=74.03 var=28 vje=0.65 vjc=0.65 re=0.1 rc=1 rb=10 cje=22.01p cjc=7.306p xcjc=0.75 fc=0.5 nf=1 nr=1 ne=1.236 nc=2 mje=0.377 mjc=0.3416 tf=410.3p tr=50.96n itf=0.6 vtf=1.7 xtf=3 eg=1.11 vceo=45 icrating=500m mfg=nsc
.model 2n3643-ltwiki npn is=14.34f ise=14.34f isc=0 xti=3 bf=255.9 br=6.092 ikf=0.2847 ikr=0 xtb=1.5 vaf=74.03 var=28 vje=0.65 vjc=0.65 re=0.1 rc=1 rb=10 cje=22.01p cjc=7.306p xcjc=0.75 fc=0.5 nf=1 nr=1 ne=1.307 nc=2 mje=0.377 mjc=0.3416 tf=411.1p tr=46.91n itf=0.6 vtf=1.7 xtf=3 eg=1.11 vceo=30 icrating=500m mfg=nsc
.model 2n3643-volval npn is=14.34f ise=14.34f isc=0 xti=3 bf=255.9 br=6.092 ikf=0.2847 ikr=0 xtb=1.5 vaf=74.03 var=28 vje=0.65 vjc=0.65 re=0.1 rc=1 rb=10 cje=22.01p cjc=7.306p xcjc=0.75 fc=0.5 nf=1 nr=1 ne=1.307 nc=2 mje=0.377 mjc=0.3416 tf=411.1p tr=46.91n itf=0.6 vtf=1.7 xtf=3 eg=1.11 vceo=30 icrating=500m mfg=nsc
.model 2n3645-ltwiki pnp is=650.6e-18 ise=54.81f isc=0 xti=3 bf=231.7 br=3.563 ikf=1.079 ikr=0 xtb=1.5 vaf=115.7 var=35 vje=0.65 vjc=0.65 re=0.15 rc=0.715 rb=10 cje=19.82p cjc=14.76p xcjc=0.75 fc=0.5 nf=1 nr=1 ne=1.829 nc=2 mje=0.3357 mjc=0.5383 tf=603.7p tr=111.3n itf=0.65 vtf=5 xtf=1.7 eg=1.11 vceo=60 icrating=500m mfg=nsc
.model 2n3645-volval pnp is=650.6e-18 ise=54.81f isc=0 xti=3 bf=231.7 br=3.563 ikf=1.079 ikr=0 xtb=1.5 vaf=115.7 var=35 vje=0.65 vjc=0.65 re=0.15 rc=0.715 rb=10 cje=19.82p cjc=14.76p xcjc=0.75 fc=0.5 nf=1 nr=1 ne=1.829 nc=2 mje=0.3357 mjc=0.5383 tf=603.7p tr=111.3n itf=0.65 vtf=5 xtf=1.7 eg=1.11 vceo=60 icrating=500m mfg=nsc
.model 2n3646-ltwiki npn is=1.017f ise=34.11p isc=0 xti=3 bf=85.99 br=3.587 ikf=0.2617 ikr=0 xtb=1.5 vaf=100 var=30 vje=0.65 vjc=0.65 re=0.15 rc=1.75 rb=10 cje=8.359p cjc=4.256p xcjc=0.75 fc=0.5 nf=1 nr=1 ne=2.048 nc=2 mje=0.3504 mjc=0.1053 tf=289.3p tr=5.32n itf=0.35 vtf=5 xtf=2 eg=1.11 vceo=40 icrating=200m mfg=nsc
.model 2n3646-volval npn is=1.017f ise=34.11p isc=0 xti=3 bf=85.99 br=3.587 ikf=0.2617 ikr=0 xtb=1.5 vaf=100 var=30 vje=0.65 vjc=0.65 re=0.15 rc=1.75 rb=10 cje=8.359p cjc=4.256p xcjc=0.75 fc=0.5 nf=1 nr=1 ne=2.048 nc=2 mje=0.3504 mjc=0.1053 tf=289.3p tr=5.32n itf=0.35 vtf=5 xtf=2 eg=1.11 vceo=40 icrating=200m mfg=nsc
.model 2n3702-ltwiki pnp is=650.6e-18 ise=97.16f isc=0 xti=3 bf=133.8 br=3.73 ikf=1.081 ikr=0 xtb=1.5 vaf=115.7 var=35 vje=0.65 vjc=0.65 re=0.15 rc=0.715 rb=10 cje=19.82p cjc=14.76p xcjc=0.75 fc=0.5 nf=1 nr=1 ne=1.832 nc=2 mje=0.3357 mjc=0.5383 tf=761.3p tr=114.1n itf=0.65 vtf=5 xtf=1.7 eg=1.11 vceo=40 icrating=200m mfg=nsc
.model 2n3702-volval pnp is=650.6e-18 ise=97.16f isc=0 xti=3 bf=133.8 br=3.73 ikf=1.081 ikr=0 xtb=1.5 vaf=115.7 var=35 vje=0.65 vjc=0.65 re=0.15 rc=0.715 rb=10 cje=19.82p cjc=14.76p xcjc=0.75 fc=0.5 nf=1 nr=1 ne=1.832 nc=2 mje=0.3357 mjc=0.5383 tf=761.3p tr=114.1n itf=0.65 vtf=5 xtf=1.7 eg=1.11 vceo=40 icrating=200m mfg=nsc
.model 2n3703-ltwiki pnp is=650.6e-18 ise=189.7f isc=0 xti=3 bf=66.92 br=4.197 ikf=1.079 ikr=0 xtb=1.5 vaf=115.7 var=35 vje=0.65 vjc=0.65 re=0.15 rc=0.715 rb=10 cje=19.82p cjc=14.76p xcjc=0.75 fc=0.5 nf=1 nr=1 ne=1.829 nc=2 mje=0.3357 mjc=0.5383 tf=761.3p tr=120.6n itf=0.65 vtf=5 xtf=1.7 eg=1.11 vceo=45 icrating=200m mfg=nsc
.model 2n3703-volval pnp is=650.6e-18 ise=189.7f isc=0 xti=3 bf=66.92 br=4.197 ikf=1.079 ikr=0 xtb=1.5 vaf=115.7 var=35 vje=0.65 vjc=0.65 re=0.15 rc=0.715 rb=10 cje=19.82p cjc=14.76p xcjc=0.75 fc=0.5 nf=1 nr=1 ne=1.829 nc=2 mje=0.3357 mjc=0.5383 tf=761.3p tr=120.6n itf=0.65 vtf=5 xtf=1.7 eg=1.11 vceo=45 icrating=200m mfg=nsc
.model 2n3773-ltwiki npn is=1.12p bf=280 nf=1 vaf=40 ikf=1.9 ise=83.27n ne=2.7324 br=1.25 nr=1 var=50 ikr=1.9 isc=83n nc=2.7 rb=0.6 rbm=0.6 re=0.001 rc=89.3m cje=1378.4p vje=0.5 mje=0.4958 tf=48.2n xtf=2 vtf=30 itf=9 cjc=684.94p vjc=0.7 mjc=0.3221 xcjc=0.5 tr=200n xtb=0.887 eg=1.11 xti=3 fc=0.5
.model 2n3859a-ltwiki npn is=5.911f ise=5.911f isc=0 xti=3 bf=393.6 br=1.372 ikf=12.43m ikr=0 xtb=1.5 vaf=62.37 var=21.5 vje=0.65 vjc=0.65 re=0.15 rc=1.61 rb=10 cje=4.973p cjc=4.017p xcjc=0.75 fc=0.5 nf=1 nr=1 ne=1.271 nc=2 mje=0.4146 mjc=0.3174 tf=818.2p tr=4.761n itf=0.35 vtf=4 xtf=7 eg=1.11 vceo=60 icrating=100m mfg=nsc
.model 2n3859a-volval npn is=5.911f ise=5.911f isc=0 xti=3 bf=393.6 br=1.372 ikf=12.43m ikr=0 xtb=1.5 vaf=62.37 var=21.5 vje=0.65 vjc=0.65 re=0.15 rc=1.61 rb=10 cje=4.973p cjc=4.017p xcjc=0.75 fc=0.5 nf=1 nr=1 ne=1.271 nc=2 mje=0.4146 mjc=0.3174 tf=818.2p tr=4.761n itf=0.35 vtf=4 xtf=7 eg=1.11 vceo=60 icrating=100m mfg=nsc
.model 2n3866-ltwiki npn bf=100 vaf=240 var=24 rc=4.9 rb=12.2 re=0.132 ikf=0.28 ise=3.6e-14 tf=7.1e-11 tr=8n itf=0.12 vtf=9.9 cjc=2.7p cje=3.5p xti=3 ne=1.5 isc=1.2e-14 eg=1.11 xtb=1.5 br=1.5 vjc=0.75 vje=0.75 is=4f mjc=0.33 mje=0.33 xtf=4.0 ikr=0.28 kf=1f nc=1.7 fc=0.5 rbm=9 irb=0.04 xcjc=0.5
.model 2n3866-volval npn bf=100 vaf=240 var=24 rc=4.9 rb=12.2 re=0.132 ikf=0.28 ise=3.6e-14 tf=7.1e-11 tr=8n itf=0.12 vtf=9.9 cjc=2.7p cje=3.5p xti=3 ne=1.5 isc=1.2e-14 eg=1.11 xtb=1.5 br=1.5 vjc=0.75 vje=0.75 is=4f mjc=0.33 mje=0.33 xtf=4.0 ikr=0.28 kf=1f nc=1.7 fc=0.5 rbm=9 irb=0.04 xcjc=0.5
.model 2n3868-ltwiki pnp is=20.4f xti=3 eg=1.11 vaf=100 bf=127.3 ise=2.393p ne=1.431 ikf=29.49 nk=1.325 xtb=1 var=100 br=3.462 isc=20.4f nc=1.659 ikr=.9991 rc=.2438 cjc=201.9p mjc=.4284 vjc=.9346 fc=.5 cje=459p mje=.2692 vje=.3905 tr=98.05n tf=2.593n itf=1 xtf=0 vtf=10
.model 2n3903-ltwiki npn is=6.734f ise=6.734f isc=0 xti=3 bf=335.2 br=0.8073 ikf=60.26m ikr=0 xtb=1.5 vaf=74.03 var=28 vje=0.65 vjc=0.65 re=0.1 rc=1 rb=10 cje=4.493p cjc=3.638p xcjc=0.75 fc=0.5 nf=1 nr=1 ne=1.208 nc=2 mje=0.2593 mjc=0.3085 tf=300.8p tr=243.9n itf=0.4 vtf=4 xtf=2 eg=1.11 vceo=60 icrating=200m mfg=nsc
.model 2n3903-volval npn is=6.734f ise=6.734f isc=0 xti=3 bf=335.2 br=0.8073 ikf=60.26m ikr=0 xtb=1.5 vaf=74.03 var=28 vje=0.65 vjc=0.65 re=0.1 rc=1 rb=10 cje=4.493p cjc=3.638p xcjc=0.75 fc=0.5 nf=1 nr=1 ne=1.208 nc=2 mje=0.2593 mjc=0.3085 tf=300.8p tr=243.9n itf=0.4 vtf=4 xtf=2 eg=1.11 vceo=60 icrating=200m mfg=nsc
.model 2n3904-ltspice npn is=1e-14 vaf=100 bf=300 ikf=0.4 xtb=1.5 br=4 cjc=4p cje=8p rb=20 rc=0.1 re=0.1 tr=250n tf=350p itf=1 vtf=2 xtf=3 vceo=40 icrating=200m mfg=nxp
.model 2n3904-ltwiki npn is=1e-14 vaf=100 bf=300 ikf=0.4 xtb=1.5 br=4 cjc=4p cje=8p rb=20 rc=0.1 re=0.1 tr=250n tf=350p itf=1 vtf=2 xtf=3 vceo=40 icrating=200m mfg=nxp
.model 2n3904-volval npn is=1e-14 vaf=100 bf=300 ikf=0.4 xtb=1.5 br=4 cjc=4p cje=8p rb=20 rc=0.1 re=0.1 tr=250n tf=350p itf=1 vtf=2 xtf=3 vceo=40 icrating=200m mfg=nxp
.model 2n3904_cordell-ltwiki npn is=3.5f bf=160 vaf=400 ikf=0.15 ise=4e-16 ne=1.26 nf=1 rb=30.1 rc=1 re=0.1 cje=15p mje=0.25 vje=0.75 cjc=3.6p mjc=0.30 vjc=0.75 fc=0.5 tf=380p xtf=30 vtf=4 itf=0.4 tr=240n br=0.7 ikr=0 eg=1.1 xtb=1.5 xti=3 nc=2 isc=0 mfg=ca022411
.model 2n3904_cordell-volval npn is=3.5f bf=160 vaf=400 ikf=0.15 ise=4e-16 ne=1.26 nf=1 rb=30.1 rc=1 re=0.1 cje=15p mje=0.25 vje=0.75 cjc=3.6p mjc=0.30 vjc=0.75 fc=0.5 tf=380p xtf=30 vtf=4 itf=0.4 tr=240n br=0.7 ikr=0 eg=1.1 xtb=1.5 xti=3 nc=2 isc=0 mfg=ca022411
.model 2n3904t-ltwiki npn is=4.1799f bf=215.38 vaf=79.874 ikf=.88689 ise=4.2698f ne=1.9988 br=4.8050 var=100 ikr=.54262 isc=2.5346p nc=1.4324 nk=1.3890 rb=14.616 rc=.53092 cje=9.4850p mje=.33333 cjc=7.6517p mjc=.33333 tf=481.51p xtf=10 vtf=10 itf=1 tr=124.93n vceo=40 icrating=600m mfg=nxp
.model 2n3904t-volval npn is=4.1799f bf=215.38 vaf=79.874 ikf=.88689 ise=4.2698f ne=1.9988 br=4.8050 var=100 ikr=.54262 isc=2.5346p nc=1.4324 nk=1.3890 rb=14.616 rc=.53092 cje=9.4850p mje=.33333 cjc=7.6517p mjc=.33333 tf=481.51p xtf=10 vtf=10 itf=1 tr=124.93n vceo=40 icrating=600m mfg=nxp
.model 2n3905-ltwiki pnp is=1.41f ise=0 isc=0 xti=3 bf=90.35 br=5.502 ikf=80m ikr=0 xtb=1.5 vaf=18.7 var=6.5 vje=0.65 vjc=0.65 re=0.15 rc=2.5 rb=10 cje=8.063p cjc=9.728p xcjc=0.75 fc=0.5 nf=1 nr=1 ne=1.5 nc=2 mje=0.3677 mjc=0.5776 tf=179.3p tr=35.05n itf=0.4 vtf=4 xtf=6 eg=1.11 vceo=40 icrating=200m mfg=nsc
.model 2n3905-volval pnp is=1.41f ise=0 isc=0 xti=3 bf=90.35 br=5.502 ikf=80m ikr=0 xtb=1.5 vaf=18.7 var=6.5 vje=0.65 vjc=0.65 re=0.15 rc=2.5 rb=10 cje=8.063p cjc=9.728p xcjc=0.75 fc=0.5 nf=1 nr=1 ne=1.5 nc=2 mje=0.3677 mjc=0.5776 tf=179.3p tr=35.05n itf=0.4 vtf=4 xtf=6 eg=1.11 vceo=40 icrating=200m mfg=nsc
.model 2n3906-ltspice pnp is=1e-14 vaf=100 bf=200 ikf=0.4 xtb=1.5 br=4 cjc=4.5p cje=10p rb=20 rc=0.1 re=0.1 tr=250n tf=350p itf=1 vtf=2 xtf=3 vceo=40 icrating=200m mfg=nxp
.model 2n3906-ltwiki pnp is=1e-14 vaf=100 bf=200 ikf=0.4 xtb=1.5 br=4 cjc=4.5p cje=10p rb=20 rc=0.1 re=0.1 tr=250n tf=350p itf=1 vtf=2 xtf=3 vceo=40 icrating=200m mfg=nxp
.model 2n3906-volval pnp is=1e-14 vaf=100 bf=200 ikf=0.4 xtb=1.5 br=4 cjc=4.5p cje=10p rb=20 rc=0.1 re=0.1 tr=250n tf=350p itf=1 vtf=2 xtf=3 vceo=40 icrating=200m mfg=nxp
.model 2n3906_cordell-ltwiki pnp is=10f bf=180 vaf=40 ikf=0.6 ise=30f ne=1.5 nf=1 rb=33 rc=1 re=0.1 cje=12p mje=0.7 vje=1.0 cjc=12p mjc=0.7 vjc=1.0 fc=0.5 tf=550p xtf=20000 vtf=10 itf=3.5 tr=10n br=4 ikr=11 eg=1.1 xtb=1.5 xti=3 nc=15.5 isc=0.5f var=100 nk=1.0 mfg=ca022411
.model 2n3906_cordell-volval pnp is=10f bf=180 vaf=40 ikf=0.6 ise=30f ne=1.5 nf=1 rb=33 rc=1 re=0.1 cje=12p mje=0.7 vje=1.0 cjc=12p mjc=0.7 vjc=1.0 fc=0.5 tf=550p xtf=20000 vtf=10 itf=3.5 tr=10n br=4 ikr=11 eg=1.1 xtb=1.5 xti=3 nc=15.5 isc=0.5f var=100 nk=1.0 mfg=ca022411