* Merge Libraries by KSKelvin
* filename: standard (from ltwiki).mos
* filename: standard (from VolVal).mos
* filename: standard (from LTspice).mos
*
.model 2n7000-ltwiki vdmos rg=3 vto=1.6 rd=0 rs=.75 rb=.14 kp=.17 mtriode=1.25 cgdmax=80p cgdmin=12p cgs=50p cjo=50p is=.04p mfg=fairchild vds=60 ron=2 qg=1.5n
.model 2n7002-ltspice vdmos rg=3 vto=1.6 rd=0 rs=.75 rb=.14 kp=.17 mtriode=1.25 cgdmax=80p cgdmin=12p cgs=50p cjo=50p is=.04p ksubthres=.1 mfg=fairchild vds=60 ron=2 qg=1.5n
.model 2n7002-ltwiki vdmos rg=3 vto=1.6 rd=0 rs=.75 rb=.14 kp=.17 mtriode=1.25 cgdmax=80p cgdmin=12p cgs=50p cjo=50p is=.04p mfg=fairchild vds=60 ron=2 qg=1.5n
.model 2n7002-volval vdmos rg=3 vto=1.6 rd=0 rs=.75 rb=.14 kp=.17 mtriode=1.25 cgdmax=80p cgdmin=12p cgs=50p cjo=50p is=.04p mfg=fairchild vds=60 ron=2 qg=1.5n
.model 2sj162-ltwiki pmos vto=-842.193m kp=20u l=2u w=21.3317m gamma=0 phi=600m lambda=20.7067m rd=837.199m cbd=2.96862n is=10f cgso=1.13517n cgdo=1.13517n tpg=1 uo=600 rg=50 rds=1meg
.model 2sj162-volval pmos vto=-842.193m kp=20u l=2u w=21.3317m gamma=0 phi=600m lambda=20.7067m rd=837.199m cbd=2.96862n is=10f cgso=1.13517n cgdo=1.13517n tpg=1 uo=600 rg=50 rds=1meg
.model 2sj162c-ltwiki vdmos pchan vto=-0.08 kp=0.6 lambda=0.1 rs=0.55 rd=0.1 rds=1e7 cgdmax=215p cgdmin=10p a=0.25 cgs=900p cjo=1200p m=0.7 vj=2.5 is=4.0u n=2.4
.model 2sj162c-volval vdmos pchan vto=-0.08 kp=0.6 lambda=0.1 rs=0.55 rd=0.1 rds=1e7 cgdmax=215p cgdmin=10p a=0.25 cgs=900p cjo=1200p m=0.7 vj=2.5 is=4.0u n=2.4
.model 2sj201c-ltwiki vdmos pchan vto=-1.5 kp=4.5 lambda=0.002 rs=0.04 rd=0.1 rds=1e7 cgdmax=3100p cgdmin=55p a=0.34 cgs=1500p cjo=2800p m=0.68 vj=2.5 is=4.0u n=2.4
.model 2sj201c-volval vdmos pchan vto=-1.5 kp=4.5 lambda=0.002 rs=0.04 rd=0.1 rds=1e7 cgdmax=3100p cgdmin=55p a=0.34 cgs=1500p cjo=2800p m=0.68 vj=2.5 is=4.0u n=2.4
.model 2sj49c-ltwiki vdmos pchan vto=-0.08 kp=0.6 lambda=0.1 rs=0.55 rd=0.1 rds=1e7 cgdmax=215p cgdmin=10p a=0.25 cgs=900p cjo=1200p m=0.7 vj=2.5 is=4.0u n=2.4
.model 2sj49c-volval vdmos pchan vto=-0.08 kp=0.6 lambda=0.1 rs=0.55 rd=0.1 rds=1e7 cgdmax=215p cgdmin=10p a=0.25 cgs=900p cjo=1200p m=0.7 vj=2.5 is=4.0u n=2.4
.model 2sk1056c-ltwiki vdmos nchan vto=0.02 kp=0.85 lambda=0.02 rs=0.62 rd=0.1 rds=1e7 cgdmax=100p cgdmin=5p a=0.25 cgs=600p cjo=1080p m=0.7 vj=2.5 is=4.0u n=2.4
.model 2sk1056c-volval vdmos nchan vto=0.02 kp=0.85 lambda=0.02 rs=0.62 rd=0.1 rds=1e7 cgdmax=100p cgdmin=5p a=0.25 cgs=600p cjo=1080p m=0.7 vj=2.5 is=4.0u n=2.4
.model 2sk1058-ltwiki nmos vto=403.969m kp=20u l=2u w=29.7482m gamma=0 phi=600m lambda=184.988f rd=60.8251m cbd=2.56138n is=10f cgso=1.13517n cgdo=1.13517n tpg=1 uo=600 rg=50 rds=1meg
.model 2sk1058-volval nmos vto=403.969m kp=20u l=2u w=29.7482m gamma=0 phi=600m lambda=184.988f rd=60.8251m cbd=2.56138n is=10f cgso=1.13517n cgdo=1.13517n tpg=1 uo=600 rg=50 rds=1meg
.model 2sk134c-ltwiki vdmos nchan vto=0.02 kp=0.85 lambda=0.02 rs=0.62 rd=0.1 rds=1e7 cgdmax=100p cgdmin=5p a=0.25 cgs=600p cjo=1080p m=0.7 vj=2.5 is=4.0u n=2.4
.model 2sk134c-volval vdmos nchan vto=0.02 kp=0.85 lambda=0.02 rs=0.62 rd=0.1 rds=1e7 cgdmax=100p cgdmin=5p a=0.25 cgs=600p cjo=1080p m=0.7 vj=2.5 is=4.0u n=2.4
.model 2sk1489-ltwiki nmos level=3 l=2u w=4.8 kp=1.0362u rs=10m rd=.7366 vto=2.2500 rds=5.3333e6 tox=2u cgso=1.9n cgdo=31.4p cbd=3.74n mj=1.1448 pb=2.0044 rg=10m is=5.1802m n=5 rb=1n gamma=0 kappa=0
.model 2sk1489-volval nmos level=3 l=2u w=4.8 kp=1.0362u rs=10m rd=.7366 vto=2.2500 rds=5.3333e6 tox=2u cgso=1.9n cgdo=31.4p cbd=3.74n mj=1.1448 pb=2.0044 rg=10m is=5.1802m n=5 rb=1n gamma=0 kappa=0
.model 2sk1530c-ltwiki vdmos nchan vto=1.55 kp=9.0 lambda=0.002 rs=0.025 rd=0.1 rds=1e7 cgdmax=1500p cgdmin=15p a=0.33 cgs=880p cjo=1260p m=0.68 vj=2.5 is=4.0u n=2.4
.model 2sk1530c-volval vdmos nchan vto=1.55 kp=9.0 lambda=0.002 rs=0.025 rd=0.1 rds=1e7 cgdmax=1500p cgdmin=15p a=0.33 cgs=880p cjo=1260p m=0.68 vj=2.5 is=4.0u n=2.4
.model 3n163-ltspice vdmos pchan vto=-3.0 rd=10 rs=100 kp=4.0m lambda=21m cgdmin=0.2p cgdmax=1.9p a=0.26 cgs=1.9p n=1.02 m=0.68 cjo=3.5p is=0.05p vj=2.5 tt=24n ksubthres=150m mtriode=0.6 mfg=linear_systems vds=40 ron=400
.model ao3423-ltspice vdmos pchan kp=6.8 rs=0.0584 rd=0.0043 rg=11.2 vto=-0.85 mtriode=.6 ksubthres=.1 lambda=0.001 cgdmax=287p cgdmin=13p cgs=288p tt=09n a=0.43 is=5.85e-07 n=1.856 rb=0.019095 m=1.379 vj=6.84 cjo=90.0pf mfg=aos vds=-20 ron=76m qg=3.2n
.model ao4614b_n-ltspice vdmos kp=19.4363 rs=0.006 rd=0.0105 rg=4.6 vto=2.68 mtriode=1.2 ksubthres=.0001 lambda=0.14 cgdmax=349p cgdmin=17p cgs=473p tt=26n a=0.24 is=7.78f n=0.896 rb=0.007406 m=0.963 vj=4.79 cjo=190.0pf mfg=aos vds=40 ron=24m qg=4.3n
.model ao4614b_p-ltspice vdmos pchan kp=13.4564 rs=0.0004 rd=0.0259 rg=14.0 vto=-2.55 mtriode=.85 ksubthres=.1 lambda=0.11 cgdmax=572p cgdmin=28p cgs=868p tt=30n a=0.23 is=1.26e-10 n=1.276 rb=0.00823 m=1.322 vj=6.13 cjo=170.0pf mfg=aos vds=-40 ron=36m qg=7.9n
.model ao4630_n-ltspice vdmos kp=34.4022 rs=0.0002 rd=0.0144 rg=3.0 vto=1.1 mtriode=.75 ksubthres=.1 lambda=0.006 cgdmax=353p cgdmin=23p cgs=625p tt=09n a=0.39 is=1.12e-11 n=1.07 rb=0.009475 m=0.316 vj=0.12 cjo=139.0pf mfg=aos vds=30 ron=17.8m qg=6n
.model ao4630_p-ltspice vdmos kp=18.0859 rs=0.0092 rd=0.0244 rg=8.0 vto=-1.1 mtriode=.8 ksubthres=.1 lambda=0.024 cgdmax=465p cgdmin=46p cgs=640p tt=22n a=0.78 is=7.98e-10 n=1.291 rb=0.01468 m=0.621 vj=1.41 cjo=92.0pf pchan mfg=aos vds=-30 ron=40m qg=7n
.model ao6407-ltspice vdmos pchan rg=3 rd=14m rs=10m vto=-.8 kp=32 cgdmax=.5n cgdmin=.07n cgs=.9n cjo=.26n is=26p rb=17m ksubthres=.1 mfg=alpha_&_omega vds=-20 ron=34m qg=13n
.model ao6407-ltwiki vdmos pchan rg=3 rd=14m rs=10m vto=-.8 kp=32 cgdmax=.5n cgdmin=.07n cgs=.9n cjo=.26n is=26p rb=17m mfg=alpha_&_omega vds=-20 ron=34m qg=13n
.model ao6407-volval vdmos pchan rg=3 rd=14m rs=10m vto=-.8 kp=32 cgdmax=.5n cgdmin=.07n cgs=.9n cjo=.26n is=26p rb=17m mfg=alpha_&_omega vds=-20 ron=34m qg=13n
.model ao6408-ltspice vdmos rg=3 rd=4.8m rs=3.6m vto=1 kp=90 cgdmax=.7n cgdmin=.25n cgs=1n cjo=.36n is=36p rb=6m ksubthres=.1 mfg=alpha_&_omega vds=20 ron=12m qg=18n
.model ao6408-ltwiki vdmos rg=3 rd=4.8m rs=3.6m vto=1 kp=90 cgdmax=.7n cgdmin=.25n cgs=1n cjo=.36n is=36p rb=6m mfg=alpha_&_omega vds=20 ron=12m qg=18n
.model ao6408-volval vdmos rg=3 rd=4.8m rs=3.6m vto=1 kp=90 cgdmax=.7n cgdmin=.25n cgs=1n cjo=.36n is=36p rb=6m mfg=alpha_&_omega vds=20 ron=12m qg=18n
.model ao6608_n-ltspice vdmos kp=14.1084 rs=0.0239 rd=0.0137 rg=1.8 vto=.96 mtriode=1 ksubthres=.1 lambda=0.045 cgdmax=206p cgdmin=11p cgs=217p tt=09n a=0.7 is=3.76e-11 n=1.183 rb=0.011952 m=0.235 vj=0.1 cjo=61.0pf mfg=aos vds=30 ron=46m qg=3n
.model ao6608_p-ltspice vdmos kp=13 rs=0.0137 rd=0.032 rg=15.0 vto=-0.69 mtriode=.8 ksubthres=.01 lambda=0.03 cgdmax=632p cgdmin=28p cgs=460p tt=23n a=1.07 is=7.52n n=1.36 rb=0.029116 m=0.484 vj=0.48 cjo=89.0pf pchan mfg=aos vds=-20 ron=63m qg=6n
.model aob2140l-ltspice vdmos rs=375u rd=375u rg=2.6 vto=2.41 kp=381 lambda=10.8m mtriode=1.67 ksubthres=.1 is=17.2p n=1.01928 rb=1.08m eg=1.11 xti=2.75735 trb1=1.82m vtotc=-5m trd1=5m trs1=5m cgs=11n cgdmin=100p cgdmax=1.7n cjo=8n m=.55 tt=5.35n mfg=alpha_&_omega vds=40 ron=1.5m qg=54n
.model aob2144l-ltspice vdmos rs=612u rd=612u rg=2 vto=2.75 kp=522 lambda=96.1m mtriode=892m ksubthres=.1 is=10.1p n=1.04191 rb=467u eg=1.11 xti=2.95589 vtotc=-3m trd1=3m trs1=3m cgs=6n cgdmin=50p cgdmax=.9n cjo=4.5n m=.5 tt=3n mfg=alpha_&_omega vds=40 ron=2.45m qg=28n
.model aob2146l-ltspice vdmos rs=775u rd=775u rg=2 vto=2.61 kp=241 lambda=72.9m mtriode=1.42 ksubthres=.1 is=6.56p n=1.04307 rb=1.08m eg=1.11 xti=2.95595 vtotc=-2.5m trd1=5m trs1=5m cgs=4.25n cgdmin=10p cgdmax=.8n cjo=3n m=.5 tt=2.5n mfg=alpha_&_omega vds=40 ron=3.1m qg=20n
.model aob2500l-ltspice vdmos kp=170.4814 rs=0.0001 rd=0.0042 rg=2.1 vto=3.68 mtriode=1.5 ksubthres=0.01 lambda=0.04 cgdmax=1447p cgdmin=41p cgs=6405p tt=130n a=0.52 is=8.10p n=0.998 rb=0.001224 m=0.41 vj=0.1 cjo=9100.0pf mfg=aos vds=150 ron=5.1m qg=97n
.model aob66518l-ltspice vdmos kp=59 rs=0.0 rd=0.0001 rg=2.3 vto=4.28 vtotc=-4m bex=-1.1 mtriode=1.2 ksubthres=.01 lambda=0.023 cgdmax=1370p cgdmin=3p cgs=6455p tt=124n a=3.55 is=1.08e-11 n=1.031 rb=0.000723 m=0.605 vj=1.41 cjo=9112.0pf mfg=aos vds=150 ron=4.2m qg=80n
.model aob66613l-ltspice vdmos kp=110 rs=0.1m rd=1.42m rg=0.9 vto=4.08 mtriode=3.2 ksubthres=116m vtotc=-4.5m bex=-0.8 trd1=5.4m trd2=15u trb1=3.9m lambda=0.076 cgdmax=2848p cgdmin=0p cgs=5265p tt=43n a=0.74 is=3.90p n=1.016 rb=0.001669 bv=70 ibv=250u m=0.841 vj=8.82 cjo=4648.0pf mfg=aos vds=60 ron=2m qg=78n
.model aob66616l-ltspice vdmos kp=100 rs=100u rd=0.0001 rg=1.25 vto=3.82 mtriode=1.2 ksubthres=0.1 lambda=0.20 cgdmax=1541p cgdmin=22p cgs=2532p tt=37n a=1.23 is=1.78n n=1.344 rb=0.000001 m=1.069 vj=16.32 cjo=2750.0pf mfg=aos vds=60 ron=2.5m qg=42.5n
.model aob66914l-ltspice vdmos rs=945u rd=945u rg=1.75 vto=3.89 kp=190 lambda=57.8m mtriode=3.07 ksubthres=.1 is=14.3p n=1.04161 rb=403u eg=1.11 xti=0.304817 trb1=-10m vtotc=-2.7m trd1=6m trs1=6m cgs=12n cgdmin=800p cgdmax=2n cjo=9n m=.44 tt=16.75n mfg=alpha_&_omega vds=100 ron=2.7m qg=155n
.model aob66916l-ltspice vdmos kp=151.3055 rs=0.0 rd=0.002 rg=1.5 vto=3.8 mtriode=.8 ksubthres=.1 lambda=0.079 cgdmax=844p cgdmin=11p cgs=6151p tt=65n a=0.36 is=7.82e-13 n=0.939 rb=0.003233 m=0.975 vj=30.74 cjo=4180.0pf mfg=aos vds=100 ron=2.95m qg=78n
.model aob66919l-ltspice vdmos rs=2.24m rd=2.24m rg=1.7 vto=2.69 kp=194 lambda=80m mtriode=1.48 ksubthres=.1 is=4.17p n=1.03804 rb=2.38m eg=1.11 xti=3.07815 trb1=1.72m vtotc=-2m trd1=9.5m trs1=9.5m cgs=3.5n cgdmin=10p cgdmax=1.1n cjo=1.9n m=.35 tt=10.7n mfg=alpha_&_omega vds=100 ron=6.4m qg=22n
.model aod280a60-ltspice vdmos kp=8.0432 rs=0.0025 rd=0.2226 rg=5.3 vto=4.99 lambda=0.004 cgdmax=813p cgdmin=3p cgs=1348p tt=403n a=7.77 is=4.97e-10 n=1.386 rb=0.003259 bv=679 ibv=1u m=0.632 vj=0.1 cjo=5842.0pf mfg=aos vds=600 ron=250m qg=23.5n
.model aod4184a-ltspice vdmos kp=70.0022 rs=0.0001 rd=0.0038 rg=3.0 vto=2.61 mtriode=0.8 ksubthres=0.1 lambda=0.11 cgdmax=1294p cgdmin=24p cgs=1365p tt=42n a=0.22 is=5.47e-14 n=0.88 rb=0.005291 m=0.678 vj=1.44 cjo=500.0pf mfg=aos vds=40 ron=5.8m qg=14n
.model aod4185-ltspice vdmos pchan kp=33.6973 rs=0.0001 rd=0.0086 rg=4.0 vto=-2.07 mtriode=0.5 ksubthres=0.0001 lambda=0.04 cgdmax=1307p cgdmin=3p cgs=2360p tt=55n a=0.13 is=3.18e-11 n=1.147 rb=0.003527 m=1.17 vj=4.92 cjo=600.0pf mfg=aos vds=-40 ron=12.5m qg=18.6n
.model aod450-ltspice vdmos kp=3 rs=0.2282 rd=0.1743 rg=5.5 vto=5.65 lambda=0.15 mtriode=.3 ksubthres=.01 cgdmax=159p cgdmin=7p cgs=208p tt=85n a=10.53 is=9.05e-11 n=1.316 rb=0.01352 m=0.317 vj=0.1 cjo=200.0pf mfg=aos vds=200 ron=550m qg=0.92n
.model aod4504-ltspice vdmos kp=7 rs=0.0033 rd=0.3102 rg=2.0 vto=3.34 lambda=0.03 mtriode=1 ksubthres=0.1 cgdmax=373p cgdmin=6p cgs=320p tt=50n a=0.72 is=1.57u n=2.164 rb=0.002352 m=0.474 vj=1.26 cjo=100.0pf mfg=aos vds=200 ron=333m qg=44n
.model aod536-ltspice vdmos kp=42.3159 rs=0.0038 rd=0.001 rg=2.5 vto=2.4 lambda=0.08 mtriode=1 ksubthres=0.1 cgdmax=237p cgdmin=14p cgs=1095p tt=17n a=0.18 is=2.96p n=1.058 rb=0.004115 m=0.658 vj=4.99 cjo=885.0pf mfg=aos vds=30 ron=7m qg=14n
.model aod66406-ltspice vdmos kp=69.2307 rs=0.0037 rd=0.0001 rg=1.8 vto=2.52 mtriode=1.3 ksubthres=0.01 lambda=0.06 cgdmax=262p cgdmin=0p cgs=1467p tt=16n a=0.39 is=3.09e-13 n=0.933 rb=0.004937 m=0.509 vj=0.93 cjo=1130.0pf mfg=aos vds=40 ron=5m qg=8.5n
.model aoe66410-ltspice vdmos kp=705.4404 rs=0.0 rd=0.0006 rg=1.1 vto=2.75 lambda=0.059 cgdmax=7441p cgdmin=61p cgs=8938p tt=40n a=109.36 is=1.54e-11 n=1.025 rb=0.000558 m=0.396 vj=1.73 cjo=4190.0pf mfg=aos vds=40 ron=0.83m qg=50n
.model aol1454-ltspice vdmos kp=46.9341 rs=0.0049 rd=0.0001 rg=3.4 vto=2.27 lambda=0.015 cgdmax=1198p cgdmin=74p cgs=1500p tt=45n a=0.85 is=1.30e-14 n=0.836 rb=0.008914 bv=40 ibv=1u m=0.489 vj=0.91 cjo=1019.0pf mfg=aos vds=40 ron=7.5m qg=10.5n
.model aon2392-ltspice vdmos kp=25.3986 rs=0.0003 rd=0.0208 rg=1.4 vto=2.09 mtriode=0.9 ksubthres=.001 lambda=0.02 cgdmax=162p cgdmin=2p cgs=836p tt=29n a=0.62 is=1.62p n=1.029 rb=0.017635 m=0.352 vj=0.1 cjo=530.0pf mfg=aos vds=100 ron=26m qg=6.1n
.model aon6144-ltspice vdmos kp=207.998 rs=0.0 rd=0.0013 rg=0.7 vto=2.6 lambda=0.082 cgdmax=1216p cgdmin=16p cgs=3720p tt=24n a=0.53 is=4.25p n=1.002 rb=0.001789 m=0.388 vj=0.31 cjo=3131.0pf mfg=aos vds=40 ron=2m qg=22n
.model aon6154-ltspice vdmos kp=583.3847 rs=0.0 rd=0.001 rg=1.1 vto=2.68 lambda=0.06 cgdmax=2082p cgdmin=20p cgs=6493p tt=32n a=0.57 is=3.14p n=0.944 rb=0.003622 m=0.348 vj=0.18 cjo=4230.0pf mfg=aos vds=45 ron=1.2m qg=38n
.model aon6160-ltspice vdmos kp=120 rs=0.0 rd=0.0001 rg=1.1 vto=3.28 mtriode=2.2 ksubthres=0.01 lambda=0.12 cgdmax=2603p cgdmin=24p cgs=6455p tt=48n a=5.62 is=8.66f n=0.784 rb=0.003703 m=0.7 vj=1.7 cjo=5900.0pf mfg=aos vds=60 ron=1.3m qg=85n
.model aon6162-ltspice vdmos kp=100 rs=0.0 rd=0.0001 rg=0.7 vto=3.35 mtriode=1 ksubthres=0.01 lambda=0.18 cgdmax=2128p cgdmin=0p cgs=4720p tt=43n a=0.21 is=9.40e-13 n=0.93 rb=0.003845 m=0.824 vj=13.59 cjo=4100.0pf mfg=aos vds=60 ron=1.75m qg=70n
.model aon6236-ltspice vdmos rg=1 mtriode=1.5 vto=2.4 ksubthres=100m theta=.25 rd=1.8m rs=1.25m rb=1m kp=100 lambda=.02 cgdmin=1f cgdmax=650p a=5 cgs=1.2n cjo=1.3n m=.5 is=1.8p n=1.15 vj=1 mfg=alpha_&_omega vds=40 ron=5.6m qg=18.5n
.model aon6242-ltspice vdmos rg=2 vto=2.7 rb=1m lambda=.1 kp=280 rd=2.6m mtriode=2 cgdmax=1n cgdmin=50p cgs=5n cjo=4n is=2p ksubthres=.1 mfg=alpha_&_omega vds=60 ron=4m qg=23n
.model aon6242-ltwiki vdmos rg=2 vto=2.7 rb=1m lambda=.1 kp=280 rd=2.6m mtriode=2 cgdmax=1n cgdmin=50p cgs=5n cjo=4n is=2p mfg=alpha_&_omega vds=60 ron=4m qg=23n
.model aon6242-volval vdmos rg=2 vto=2.7 rb=1m lambda=.1 kp=280 rd=2.6m mtriode=2 cgdmax=1n cgdmin=50p cgs=5n cjo=4n is=2p mfg=alpha_&_omega vds=60 ron=4m qg=23n
.model aon6264e-ltspice vdmos vto=2.3 kp=92 lambda=52m mtriode=1.6 bv=72 ibv=250u rd=0.1m rs=6.7m rg=1.2 rb=4.5m cjo=688p cgs=1041p cgdmin=0p cgdmax=312p a=0.25 is=1.9p n=1.021 vj=13.14 m=793m tt=27n eg=1.07 tnom=25 bex=-2.03 vtotc=-3.3m trs1=5.1m trs2=11u trb1=0.8m vds=60 ron=7.7m qg=7n mfg=aos
.model aon6266e-ltspice vdmos rs=3.5m rd=3.5m rg=1.3 vto=1.66 kp=20.8 lambda=65.2m mtriode=2.42 ksubthres=.1 is=996f n=1.00957 rb=5.54m eg=1.11 xti=1.73049 trb1=1.69m vtotc=-2.8m trd1=9m trs1=9m cgs=900p cgdmin=50p cgdmax=350p cjo=480p m=.5 tt=2.7n mfg=alpha_&_omega vds=60 ron=14m qg=6.5n
.model aon6276-ltspice vdmos kp=142 rs=10u rd=0.0011 rg=0.7 vto=3.26 mtriode=1.5 ksubthres=0.08 lambda=0.09 cgdmax=959p cgdmin=36p cgs=4900p tt=46n a=2.28 is=1.88p n=0.971 rb=0.002469 m=0.66 vj=3.43 cjo=3900.0pf mfg=aos vds=80 ron=2.2m qg=68n
.model aon6278-ltspice vdmos kp=96.6 rs=0.0 rd=0.0017 rg=0.65 vto=3.15 mtriode=1.1 ksubthres=0 lambda=0.15 cgdmax=327p cgdmin=1p cgs=4615p tt=46n a=0.1 is=1.71n n=1.341 rb=0.000206 m=0.646 vj=2.67 cjo=3600.0pf mfg=aos vds=80 ron=2.75m qg=61.5n
.model aon6280-ltspice vdmos kp=118 rs=0.3m rd=0.0018 rg=0.7 vto=3.41 vtotc=-4m bex=-1.8 mtriode=1.5 ksubthres=0.1 lambda=0.1 cgdmax=1194p cgdmin=54p cgs=3864p tt=52n a=0.33 is=2.06p n=1.005 rb=0.000913 m=1.045 vj=9.12 cjo=3000.0pf mfg=aos vds=80 ron=4m qg=68n
.model aon6284a-ltspice vdmos vto=2.25 kp=225 lambda=48m mtriode=0.74 bv=95 ibv=250u rd=0.3m rs=4.4m rg=1.45 rb=1.436m cjo=1359p cgs=2477p cgdmin=9p cgdmax=766p a=0.21 is=5.27p n=1.026 vj=1.92 m=541m tt=33n eg=1.065 tnom=25 bex=-1.7 vtotc=-2.4m trs1=6.2m trs2=6.8u trb1=3m vds=80 ron=5.2m qg=16.5n mfg=aos
.model aon6290-ltspice vdmos kp=125 rs=50u rd=0.0033 rg=0.75 vto=3.37 mtriode=1.2 ksubthres=0.01 lambda=0.08 cgdmax=649p cgdmin=8p cgs=4573p tt=58n a=0.27 is=1.61n n=1.336 rb=0.000514 m=0.348 vj=0.1 cjo=3700.0pf mfg=aos vds=100 ron=3.8m qg=28.5n
.model aon6312-ltspice vdmos kp=196 rs=0.3m rd=0.5m rg=2.3 vto=2.58 vtotc=-3.1m bex=-1.5 mtriode=.65 ksubthres=.19 lambda=.2 cgdmax=918p cgdmin=54p cgs=2995p tt=24n a=0.9 is=8.71p n=1.022 rb=0.661m eg=1.02 trb1=-45m bv=33 ibv=250u m=0.345 vj=0.52 cjo=2342.0pf mfg=aos vds=30 ron=1.5m qg=20n
.model aon6314-ltspice vdmos kp=190 rs=0.1m rd=1.6m rg=1.8 vto=2.07 vtotc=-2.4m bex=-1.6 mtriode=0.6 ksubthres=0.01 lambda=0.208 cgdmax=861p cgdmin=48p cgs=1840p tt=17n a=1.74 is=4.96p n=1.038 eg=1.03 rb=0.28m trb1=-.2 bv=33 ibv=250u m=.354 vj=0.51 cjo=1135.0pf mfg=aos vds=30 ron=2.3m qg=13n
.model aon6358-ltspice vdmos kp=102.3427 rs=0.0 rd=0.0005 rg=1.9 vto=2.55 mtriode=1.2 ksubthres=0.1 lambda=0.29 cgdmax=1277p cgdmin=0p cgs=2100p tt=24n a=0.33 is=2.68e-10 n=1.176 rb=0.0 m=0.659 vj=4.88 cjo=2270.0pf mfg=aos vds=30 ron=1.8m qg=15n
.model aon6500-ltspice vdmos kp=176.0045 rs=0.0 rd=0.0001 rg=1.1 vto=1.84 lambda=0.33 mtriode=1.3 ksubthres=0.1 cgdmax=4736p cgdmin=39p cgs=6725p tt=45n a=0.37 is=5.59e-11 n=1.044 rb=0.000684 m=0.603 vj=4.96 cjo=5818.0pf mfg=aos vds=30 ron=0.75m qg=49.7n
.model aon6512-ltspice vdmos kp=85 rs=0.0 rd=0.0001 rg=0.7 vto=2.29 mtriode=1.3 ksubthres=.1 lambda=0.33 cgdmax=2194p cgdmin=24p cgs=3255p tt=32n a=0.37 is=5.41e-13 n=0.916 rb=0.000918 m=0.658 vj=5.07 cjo=2850.0pf mfg=aos vds=30 ron=1.4m qg=25n
.model aon6560-ltspice vdmos kp=243.806 rs=0.0 rd=0.0001 rg=1.2 vto=2.41 mtriode=1.2 ksubthres=.01 lambda=0.71 cgdmax=11990p cgdmin=447p cgs=8400p tt=55n a=0.1 is=1.47e-11 n=1.008 rb=0.0 m=1.585 vj=5.34 cjo=2500.0pf mfg=aos vds=30 ron=.55m qg=130n
.model aon6590a-ltspice vdmos kp=608.303 rs=0.0 rd=0.0005 rg=1.15 vto=2.77 lambda=0.075 cgdmax=2962p cgdmin=0p cgs=8235p tt=37n a=0.68 is=1.00e-11 n=1.007 rb=0.000416 m=0.383 vj=0.38 cjo=6210.0pf mfg=aos vds=40 ron=0.78m qg=45n
.model aon6667_n-ltspice vdmos kp=17.3126 rs=0.0002 rd=0.0107 rg=1.8 vto=2.41 mtriode=1.1 ksubthres=.1 lambda=0.07 cgdmax=262p cgdmin=25p cgs=332p tt=09n a=0.38 is=2.15p n=1.077 rb=0.001763 m=0.282 vj=0.1 cjo=110.0pf mfg=aos vds=30 ron=18.5m qg=3.5n
.model aon6667_p-ltspice vdmos pchan kp=26.564 rs=0.0002 rd=0.0112 rg=4.0 vto=-2.68 mtriode=.5 ksubthres=.1 lambda=0.11 cgdmax=607p cgdmin=74p cgs=915p tt=17n a=0.27 is=6.95e-11 n=1.236 rb=0.002939 m=1.459 vj=6.83 cjo=300.0pf mfg=aos vds=-30 ron=16.5m qg=9.6n
.model aon6884-ltspice vdmos rg=3.5 vto=2.74 rd=0.0076 rs=0.0001 rb=0.004937 kp=82.4015 lambda=0.14 mtriode=1.1 ksubthres=0.1 cgdmin=65p cgdmax=1268p a=4 cgs=1365p cjo=500.0pf m=0.678 is=3.09e-13 vj=1.44 n=0.933 tt=19n mfg=aos vds=40 ron=9.4m qg=13.6n
.model aon6992_bottom-ltspice vdmos kp=220.5452 rs=0.0 rd=0.001 rg=1.9 vto=2.04 mtriode=1.5 ksubthres=0.1 lambda=0.30 cgdmax=1718p cgdmin=0p cgs=3010p tt=25n a=0.44 is=2.46e-05 n=1.543 rb=0.026478 m=0.594 vj=3.44 cjo=2250.0pf mfg=aos vds=30 ron=1.6m qg=21n
.model aon6992_top-ltspice vdmos kp=44.6407 rs=0.0 rd=0.0014 rg=1.2 vto=2.25 mtriode=0.8 ksubthres=0.1 lambda=0.12 cgdmax=393p cgdmin=0p cgs=780p tt=16n a=0.25 is=9.04p n=1.077 rb=0.001763 m=-0.014 vj=0.1 cjo=730.0pf mfg=aos vds=30 ron=4.3m qg=6.1n
.model aon6994_bottom-ltspice vdmos kp=167.6136 rs=0.0 rd=0.0015 rg=1.8 vto=2.0 mtriode=1.8 ksubthres=0.01 lambda=0.30 cgdmax=1473p cgdmin=0p cgs=2080p tt=22n a=0.54 is=1.05e-04 n=2.032 rb=0.017791 m=0.608 vj=3.54 cjo=1750.0pf mfg=aos vds=30 ron=2.3m qg=17n
.model aon6994_top-ltspice vdmos kp=44.6407 rs=0.0 rd=0.0014 rg=1.2 vto=2.25 mtriode=0.8 ksubthres=0.1 lambda=0.12 cgdmax=393p cgdmin=0p cgs=780p tt=16n a=0.25 is=9.04p n=1.077 rb=0.001763 m=-0.014 vj=0.1 cjo=730.0pf mfg=aos vds=30 ron=4.3m qg=6.1n
.model aon7140-ltspice vdmos rs=675u rd=675u rg=850m vto=2.59 kp=229 lambda=164m mtriode=1.7 ksubthres=.1 is=6.85p n=1.02515 rb=775u eg=1.11 xti=2.00274 vtotc=-3m trd1=8m trs1=8m cgs=3.3n cgdmin=10p cgdmax=800p cjo=2.8n m=.5 tt=2.1n mfg=alpha_&_omega vds=40 ron=2.7m qg=18n
.model aon7262e-ltspice vdmos kp=70 rs=0.1m rd=0.0029 rg=1.3 vto=1.98 mtriode=1.4 ksubthres=.01 lambda=0.024 cgdmax=710p cgdmin=1p cgs=1600p tt=27n a=0.18 is=6.15p n=1.045 rb=0.002307 bv=66 ibv=250u m=0.85 vj=16.58 cjo=1126.0pf mfg=aos vds=60 ron=4.8m qg=15n
.model aon7407-ltspice vdmos pchan kp=91.0922 rs=0.0001 rd=0.0046 rg=2.8 vto=-0.65 mtriode=0.6 ksubthres=.001 lambda=0.01 cgdmax=6017p cgdmin=318p cgs=3070p tt=48n a=2.07 is=8.66e-08 n=1.228 rb=0.003877 mfg=aos vds=-20 ron=7.6m qg=44n
.model aon7422g-ltspice vdmos rs=1.3m rd=1.3m rg=2.5 vto=2.44 kp=56.4 lambda=411m mtriode=3.32 ksubthres=.1 is=3.63p n=1.01743 rb=1.27m eg=1.11 xti=2.39498 trb1=443u vtotc=-2m trd1=7m trs1=7m cgs=3n cgdmin=100p cgdmax=750p cjo=1n m=.5 tt=.75n mfg=alpha_&_omega vds=30 ron=5.2m qg=20n
.model aon7423-ltspice vdmos pchan kp=267.2604 rs=1.63m rd=2.317m rg=3.0 vto=-0.67 mtriode=1 ksubthres=.001 lambda=0.01969 cgdmax=9083p cgdmin=0p cgs=4910p tt=112n a=0.49 is=3.47e-08 n=1.108 rb=0.00823 m=3.59 vj=15.74 cjo=1240.0pf mfg=aos vds=-20 ron=3.95m qg=70n
.model aon7522e-ltspice vdmos kp=49.5284 vto=2.2 lambda=0.352 mtriode=1.7 ksubthres=.13 bv=30 rs=0.0006 rd=0.0016 rg=1.7 vtotc=-3.1m bex=-1.5 cgdmax=1605p cgdmin=134p cgs=1080p tt=22n a=0.11 is=2.00p n=1 rb=0.002681 trb1=2.5m eg=0.98 m=0.437 vj=0.1 cjo=340.0pf mfg=aos vds=30 ron=3.2m qg=19.7n
.model aone36132_q1-ltspice vdmos rs=1.56m rd=1.56m rg=700m vto=1.5 kp=38.1 lambda=260m mtriode=5.21 ksubthres=.1 is=8.79p n=1.07961 rb=2.86m eg=1.11 xti=0.304817 trb1=-9.14m vtotc=-2m trd1=4m trs1=4m cgs=.9n cgdmin=100p cgdmax=400p cjo=450p m=.5 tt=.575n mfg=alpha_&_omega vds=25 ron=4.8m qg=6.5n
.model aone36132_q2-ltspice vdmos rs=423u rd=423u rg=700m vto=2.39 kp=380 lambda=207m mtriode=2.75 ksubthres=.1 is=8.33p n=1.02802 rb=1.37m eg=1.11 xti=0.304817 trb1=-10m vtotc=-.5m trd1=6m trs1=6m cgs=4n cgdmin=150p cgdmax=1n cjo=2.1n m=.43 tt=1.675n mfg=alpha_&_omega vds=25 ron=1.3m qg=25n
.model aonp36320_q1-ltspice vdmos rs=1m rd=1m rg=2.6 vto=2.16 kp=9.61 lambda=3.7 mtriode=23 ksubthres=.1 is=3.56p n=1.03854 rb=728u eg=1.11 xti=1.54359 trb1=-2.97m vtotc=-3m trd1=3.8m trs1=3.8m cgs=2n cgdmin=100p cgdmax=150p cjo=1.6n m=.55 tt=1.2n mfg=alpha_&_omega vds=30 ron=4m qg=10n
.model aonp36320_q2-ltspice vdmos rs=1.02m rd=1.02m rg=2.3 vto=2.16 kp=16.8 lambda=2.03 mtriode=13.5 ksubthres=.1 is=3.33p n=1.02363 rb=1.27m eg=1.11 xti=2.64872 trb1=1.27m vtotc=-2.25m trd1=3.5m trs1=3.5m cgs=1.5n cgdmin=150p cgdmax=250p cjo=1.5n m=.6 tt=1.2n mfg=alpha_&_omega vds=30 ron=4m qg=10n
.model aonp36332_q1-ltspice vdmos rs=1.3m rd=1.3m rg=800m vto=2.22 kp=185 lambda=396m mtriode=2.14 ksubthres=.1 is=3.19p n=1.02426 rb=3.15m eg=1.11 xti=0.304817 trb1=-2.46m vtotc=-1.7m trd1=4m trs1=4m cgs=1.25n cgdmin=50p cgdmax=700p cjo=.8n m=.5 tt=1.01n mfg=alpha_&_omega vds=30 ron=3.7m qg=10n
.model aonp36332_q2-ltspice vdmos rs=1.68m rd=1.68m rg=1.9 vto=2.03 kp=120 lambda=537m mtriode=2.57 ksubthres=.1 is=4.88p n=1.02147 rb=3.7m eg=1.11 xti=0.304817 trb1=-3.75m vtotc=-1.7m trd1=4m trs1=4m cgs=1.1n cgdmin=40p cgdmax=400p cjo=.72n m=.43 tt=.75n mfg=alpha_&_omega vds=30 ron=4.67m qg=7.5n
.model aonp36336_q1-ltspice vdmos rs=1.58m rd=1.58m rg=800m vto=1.34 kp=63.3 lambda=154m mtriode=3.7 ksubthres=.1 is=4.3p n=1.01987 rb=4.34m eg=1.11 xti=0.304817 trb1=-619u vtotc=-1.5m trd1=4.5m trs1=4.5m cgs=1.4n cgdmin=25p cgdmax=400p cjo=.8n m=.5 tt=.95n mfg=alpha_&_omega vds=30 ron=4.5m qg=8n
.model aonp36336_q2-ltspice vdmos rs=2.02m rd=2.02m rg=1.8 vto=1.76 kp=106 lambda=334m mtriode=1.97 ksubthres=.1 is=3.18p n=1.01302 rb=5.49m eg=1.11 xti=0.304817 trb1=-706u vtotc=-2m trd1=5m trs1=5m cgs=.8n cgdmin=50p cgdmax=400p cjo=.48n m=.42 tt=.7n mfg=alpha_&_omega vds=30 ron=5.8m qg=6n
.model aonr21117-ltspice vdmos pchan kp=157.7038 rs=.1m rd=2.663m rg=3.0 vto=-0.9 vtotc=2m bex=-1.5 mtriode=.81 ksubthres=0.1 lambda=0.049 cgdmax=4020p cgdmin=652p cgs=5860p tt=55n a=0.59 is=8.33e-10 n=1 rb=0.008583 eg=.8 trb1=-5m m=0.313 vj=0.1 cjo=410.0pf mfg=aos vds=-20 ron=4m qg=63n
.model aonr21305c-ltspice vdmos pchan rs=2.27m rd=2.27m rg=2.7 vto=-2.19 kp=64.3 lambda=91.7m mtriode=2.23 ksubthres=.1 is=2.93p n=1.03691 rb=1.91m eg=1.11 xti=2.86353 trb1=4.4m vtotc=2m trd1=3.5m trs1=3.5m cgs=4n cgdmin=500p cgdmax=2n cjo=500p m=.6 tt=1.7n mfg=alpha_&_omega vds=-30 ron=7.7m qg=32n
.model aonr21307-ltspice vdmos pchan kp=27.3039 rs=0.0001 rd=0.0044 rg=4.5 vto=-2.1 mtriode=.75 ksubthres=0.01 lambda=0.05 cgdmax=1189p cgdmin=137p cgs=1735p tt=19n a=0.22 is=6.95e-13 n=0.959 rb=0.005878 m=0.415 vj=0.14 cjo=280.0pf mfg=aos vds=-30 ron=9.2m qg=17n
.model aonr21311c-ltspice vdmos pchan rs=13.9m rd=13.9m rg=15 vto=-1.86 kp=9.33 lambda=129m mtriode=2.19 ksubthres=.1 is=4.38p n=1.08551 rb=15m eg=1.11 xti=1.50279 trb1=2.37m vtotc=2.5m trd1=5.2m trs1=5.2m cgs=.6n cgdmin=50p cgdmax=500p cjo=50p m=.5 tt=1.86n mfg=alpha_&_omega vds=-30 ron=48m qg=6n
.model aonr21321-ltspice vdmos pchan kp=16.4601 rs=0.0033 rd=0.0025 rg=5.0 vto=-1.9 mtriode=0.85 ksubthres=0.01 lambda=0.05 cgdmax=657p cgdmin=125p cgs=1025p tt=14n a=0.46 is=3.49p n=1.048 rb=0.005291 m=1.585 vj=7.15 cjo=180.0pf mfg=aos vds=-30 ron=13.5m qg=11n
.model aonr21357-ltspice vdmos pchan kp=50.9915 rs=0.0036 rd=0.0001 rg=14.0 vto=-2.32 mtriode=0.6 ksubthres=.01 lambda=0.15 cgdmax=1652p cgdmin=233p cgs=2465p tt=46n a=0.27 is=7.34e-11 n=1.156 rb=0.00235 m=0.192 vj=0.1 cjo=300.0pf mfg=aos vds=-30 ron=6.3m qg=25n
.model aonr32314-ltspice vdmos rs=2.88m rd=2.88m rg=2 vto=1.89 kp=32.1 lambda=127m mtriode=3.1 ksubthres=.1 is=3.64p n=0.88288 rb=874u eg=1.11 xti=0.304817 trb1=7.52m vtotc=-2.4m trd1=5.2m trs1=5.2m cgs=1.5n cgdmin=50p cgdmax=600p cjo=200p m=.4 tt=.53n mfg=alpha_&_omega vds=30 ron=9.8m qg=10n
.model aonr32320c-ltspice vdmos rs=5.75m rd=5.75m rg=2.1 vto=1.07 kp=6.84 lambda=55.4m mtriode=3.9 ksubthres=.1 is=1.24p n=1.01547 rb=5.88m eg=1.11 xti=1.78957 trb1=3.95m vtotc=-3.5m trd1=4.5m trs1=4.5m cgs=.6n cgdmin=50p cgdmax=350p cjo=25p m=.5 tt=.53n mfg=alpha_&_omega vds=30 ron=23m qg=7n
.model aonr36328-ltspice vdmos rs=3.16m rd=3.16m rg=1.5 vto=2.46 kp=55.2 lambda=537m mtriode=3.28 ksubthres=.1 is=1.09p n=1.02196 rb=3.92m eg=1.11 xti=3.15318 trb1=2.6m vtotc=-1.5m trd1=4m trs1=4m cgs=.65n cgdmin=25p cgdmax=350p cjo=500p m=.5 tt=.635n mfg=alpha_&_omega vds=30 ron=9.2m qg=5n
.model aonr62818-ltspice vdmos vto=2.37 kp=184 lambda=47m mtriode=0.78 bv=88 ibv=250u rd=0.1m rs=4.5m rg=1.35 rb=1.13m cjo=1559p cgs=2405p cgdmin=8p cgdmax=372p a=0.35 is=3.2p n=1.026 vj=1.18 m=499m tt=35n eg=1.048 tnom=25 bex=-0.8 vtotc=-2.1m trs1=6.11m trs2=22u trb1=2.2m vds=80 ron=5.5m qg=15n mfg=aos
.model aonr66406-ltspice vdmos kp=69.2307 rs=0.0037 rd=0.0001 rg=1.8 vto=2.52 mtriode=1.3 ksubthres=0.01 lambda=0.06 cgdmax=262p cgdmin=0p cgs=1467p tt=16n a=0.39 is=3.09e-13 n=0.933 rb=0.004937 m=0.509 vj=0.93 cjo=1130.0pf mfg=aos vds=40 ron=5m qg=8.5n
.model aonr66922-ltspice vdmos kp=73 rs=100u rd=6.5m rg=1.05 vto=2.45 mtriode=2 vtotc=-2.7m trd1=7.5m eg=0.99 trb1=-5m lambda=0.029 cgdmax=433p cgdmin=0p cgs=2168p tt=46n a=0.26 is=3.59p n=1.045 rb=1.5m bv=120 ibv=250u m=1.316 vj=49.96 cjo=1337.63pf mfg=aos vds=100 ron=7.4m qg=15n
.model aonr66924-ltspice vdmos rs=4.8m rd=4.8m rg=1.4 vto=2.64 kp=64.5 lambda=99.8m mtriode=2.02 ksubthres=.1 is=2.09p n=1.04682 rb=3.84m eg=1.11 xti=1.96526 trb1=1.37m vtotc=-2m trd1=6.5m trs1=6.5m cgs=.6n cgdmin=25p cgdmax=300p cjo=900p m=.5 tt=7.4n mfg=alpha_&_omega vds=100 ron=14m qg=9.8n
.model aons21303c-ltspice vdmos pchan rs=941u rd=941u rg=2.6 vto=-2.55 kp=344 lambda=95m mtriode=1.19 ksubthres=.1 is=20.1p n=1.06087 rb=1.31m eg=1.11 xti=0.304817 trb1=-5.71m vtotc=2m trd1=3.5m trs1=3.5m cgs=10n cgdmin=500p cgdmax=8n cjo=100p m=.5 tt=3.15n mfg=alpha_&_omega vds=-30 ron=3.2m qg=100n
.model aons21309c-ltspice vdmos pchan rs=1.32m rd=1.32m rg=2.3 vto=-2.59 kp=349 lambda=107m mtriode=851m ksubthres=.1 is=5.76p n=1.04426 rb=1.63m eg=1.11 xti=2.68552 trb1=-545u vtotc=1.5m trd1=4m trs1=4m cgs=7n cgdmin=250p cgdmax=4.5n cjo=50p m=.5 tt=2.4n mfg=alpha_&_omega vds=-30 ron=4.5m qg=60n
.model aons32100-ltspice vdmos kp=225 rs=50u rd=200u rg=1.4 vto=1.67 vtotc=-2.2m bex=-1.15 mtriode=2 ksubthres=0.1 lambda=0.063 cgdmax=5963p cgdmin=1207p cgs=13800p tt=36n a=0.49 is=1.61e-10 n=1.035 rb=1u eg=1.03 trb1=2.5m m=0.503 vj=0.94 cjo=2580.0pf mfg=aos vds=25 ron=0.6m qg=115n
.model aons32302-ltspice vdmos rs=478u rd=478u rg=800m vto=2.64 kp=489 lambda=449m mtriode=2.13 ksubthres=.1 is=11.9p n=1.03813 rb=150u eg=1.11 xti=0.570317 trb1=-10m vtotc=-1.5m trd1=6m trs1=6m cgs=6n cgdmin=750p cgdmax=3.5n cjo=1.3n m=.8 tt=2n mfg=alpha_&_omega vds=30 ron=1.5m qg=54n
.model aons32303-ltspice vdmos rs=437u rd=437u rg=800m vto=1.97 kp=56.5 lambda=30.1m mtriode=4.3 ksubthres=.1 is=82.8p n=0.934175 rb=277u eg=1.11 xti=0.304817 trb1=4.51m vtotc=-2.5m trd1=6m trs1=6m cgs=6n cgdmin=750p cgdmax=3.8n cjo=.3n m=.8 tt=2n mfg=alpha_&_omega vds=30 ron=2.55m qg=52n
.model aons32304-ltspice vdmos kp=239 rs=0.42m rd=1.2m rg=3.0 vto=2.16 vtotc=-2.8m bex=-2.07 mtriode=1.1 ksubthres=0.1 lambda=0.158 cgdmax=1420p cgdmin=288p cgs=5352p tt=19n a=0.7 is=2.35e-11 n=1.017 eg=1.07 rb=0.1m trb1=-1 bv=33 ibv=250u m=0.456 vj=0.56 cjo=1090.0pf mfg=aos vds=30 ron=1.8m qg=40n
.model aons32306-ltspice vdmos rs=1.48m rd=1.48m rg=2 vto=1.95 kp=98.8 lambda=517m mtriode=5.37 ksubthres=.1 is=16.3p n=1.01906 rb=2.46m eg=1.11 xti=1.28271 trb1=-974u vtotc=-1m trd1=4.2m trs1=4.2m cgs=4n cgdmin=250p cgdmax=1.3n cjo=.8n m=.5 tt=.95n mfg=alpha_&_omega vds=30 ron=3.7m qg=29n
.model aons32310-ltspice vdmos kp=225 rs=50u rd=0.0002 rg=1.3 vto=1.87 vtotc=-3.1m bex=-1.51 mtriode=1.7 ksubthres=.1 lambda=0.049 cgdmax=4449p cgdmin=724p cgs=14450p tt=29n a=0.55 is=0.89e-10 n=1.03 rb=0.032m eg=1.05 trb1=0.25m m=0.342 vj=0.17 cjo=2460pf mfg=aos vds=30 ron=0.8m qg=110n
.model aons36303-ltspice vdmos rs=1m rd=1m rg=1.5 vto=2.48 kp=58.6 lambda=554m mtriode=4.23 ksubthres=.1 is=2.07p n=1.03164 rb=1.49m eg=1.11 xti=0.304817 vtotc=-2m trd1=4m trs1=4m cgs=1n cgdmin=50p cgdmax=850p cjo=.9n m=.42 tt=.85n mfg=alpha_&_omega vds=30 ron=4m qg=10n
.model aons36304-ltspice vdmos rs=1.08m rd=1.08m rg=1.4 vto=2.25 kp=301 lambda=361m mtriode=2.34 ksubthres=.1 is=3.22p n=1.03138 rb=2.09m eg=1.11 xti=0.839613 trb1=-3.05m vtotc=-4m trd1=4m trs1=4m cgs=2n cgdmin=100p cgdmax=1.7n cjo=1.3n m=.5 tt=1.45n mfg=alpha_&_omega vds=30 ron=2.8m qg=18.5n